
  EPA STORM WATER MANAGEMENT MODEL - VERSION 5.1 (Build 5.1.010)
  --------------------------------------------------------------

  WARNING 04: minimum elevation drop used for Conduit C199
  WARNING 04: minimum elevation drop used for Conduit C200
  WARNING 02: maximum depth increased for Node FID1955
  WARNING 02: maximum depth increased for Node FID1960
  WARNING 02: maximum depth increased for Node FID1965
  WARNING 02: maximum depth increased for Node FID1968
  WARNING 02: maximum depth increased for Node FID2244
  WARNING 02: maximum depth increased for Node FID2442
  WARNING 02: maximum depth increased for Node FID2446
  WARNING 02: maximum depth increased for Node FID5504
  WARNING 02: maximum depth increased for Node FID5527
  WARNING 02: maximum depth increased for Node AFID6926
  WARNING 02: maximum depth increased for Node AFID7376
  
  *********************************************************
  NOTE: The summary statistics displayed in this report are
  based on results found at every computational time step,  
  not just on results from each reporting time step.
  *********************************************************
  
  ****************
  Analysis Options
  ****************
  Flow Units ............... CMS
  Process Models:
    Rainfall/Runoff ........ YES
    RDII ................... NO
    Snowmelt ............... NO
    Groundwater ............ NO
    Flow Routing ........... YES
    Ponding Allowed ........ YES
    Water Quality .......... YES
  Infiltration Method ...... GREEN_AMPT
  Flow Routing Method ...... DYNWAVE
  Starting Date ............ MAY-06-2016 15:00:00
  Ending Date .............. MAY-07-2016 00:00:00
  Antecedent Dry Days ...... 0.0
  Report Time Step ......... 00:01:00
  Wet Time Step ............ 00:01:00
  Dry Time Step ............ 01:00:00
  Routing Time Step ........ 5.00 sec
  Variable Time Step ....... YES
  Maximum Trials ........... 8
  Number of Threads ........ 3
  Head Tolerance ........... 0.001500 m
  
  
  **************************        Volume         Depth
  Runoff Quantity Continuity     hectare-m            mm
  **************************     ---------       -------
  Total Precipitation ......         2.583         6.709
  Evaporation Loss .........         0.000         0.000
  Infiltration Loss ........         1.430         3.714
  Surface Runoff ...........         0.433         1.125
  Final Storage ............         0.720         1.871
  Continuity Error (%) .....        -0.021
  
  
  **************************           TSS            TP           TDP
  Runoff Quality Continuity             kg            kg            kg
  **************************    ----------    ----------    ----------
  Initial Buildup ..........         0.000         0.000         0.000
  Surface Buildup ..........     17004.313        12.058        10.690
  Wet Deposition ...........         0.000         0.000         0.000
  Sweeping Removal .........         0.000         0.000         0.000
  Infiltration Loss ........         0.000         0.000         0.000
  BMP Removal ..............         0.885         0.001         0.000
  Surface Runoff ...........      8852.120         5.552         4.726
  Remaining Buildup ........      8151.308         6.506         5.964
  Continuity Error (%) .....         0.000         0.000         0.000
  
  
  **************************        Volume        Volume
  Flow Routing Continuity        hectare-m      10^6 ltr
  **************************     ---------     ---------
  Dry Weather Inflow .......         0.000         0.000
  Wet Weather Inflow .......         0.433         4.332
  Groundwater Inflow .......         0.000         0.000
  RDII Inflow ..............         0.000         0.000
  External Inflow ..........         1.384        13.843
  External Outflow .........         1.231        12.309
  Flooding Loss ............         0.000         0.000
  Evaporation Loss .........         0.000         0.000
  Exfiltration Loss ........         0.000         0.000
  Initial Stored Volume ....         0.000         0.000
  Final Stored Volume ......         0.593         5.928
  Continuity Error (%) .....        -0.341
  
  
  **************************           TSS            TP           TDP
  Quality Routing Continuity            kg            kg            kg
  **************************    ----------    ----------    ----------
  Dry Weather Inflow .......         0.000         0.000         0.000
  Wet Weather Inflow .......      8462.489         5.493         4.649
  Groundwater Inflow .......         0.000         0.000         0.000
  RDII Inflow ..............         0.000         0.000         0.000
  External Inflow ..........       137.985         1.039         1.284
  External Outflow .........      8578.519         6.177         5.398
  Flooding Loss ............         0.000         0.000         0.000
  Exfiltration Loss ........         0.000         0.000         0.000
  Mass Reacted .............         0.000         0.000         0.000
  Initial Stored Mass ......         0.000         0.000         0.000
  Final Stored Mass ........        44.511         0.386         0.555
  Continuity Error (%) .....        -0.262        -0.485        -0.335
  
  
  *************************
  Highest Continuity Errors
  *************************
  Node FID2827 (5.00%)
  Node FID2824 (4.59%)
  Node J72 (1.78%)
  Node J81 (1.65%)
  Node J19 (1.63%)
  
  
  ***************************
  Time-Step Critical Elements
  ***************************
  Link C241 (91.43%)
  Link C14 (7.66%)
  
  
  ********************************
  Highest Flow Instability Indexes
  ********************************
  All links are stable.
  
  
  *************************
  Routing Time Step Summary
  *************************
  Minimum Time Step           :     0.24 sec
  Average Time Step           :     0.97 sec
  Maximum Time Step           :     5.00 sec
  Percent in Steady State     :     0.00
  Average Iterations per Step :     2.00
  Percent Not Converging      :     0.00
  
  
  ***************************
  Subcatchment Runoff Summary
  ***************************
  
  --------------------------------------------------------------------------------------------------------
                            Total      Total      Total      Total      Total       Total     Peak  Runoff
                           Precip      Runon       Evap      Infil     Runoff      Runoff   Runoff   Coeff
  Subcatchment                 mm         mm         mm         mm         mm    10^6 ltr      CMS
  --------------------------------------------------------------------------------------------------------
  S0                         5.84       0.00       0.00       5.16       0.21        0.00     0.00   0.035
  S1                         5.84       0.00       0.00       3.01       0.84        0.08     0.02   0.143
  S2                         6.35       0.00       0.00       2.61       1.24        0.21     0.07   0.195
  S3                         5.84       0.00       0.00       4.08       0.53        0.02     0.01   0.090
  S4                         5.84       0.00       0.00       3.19       0.79        0.08     0.03   0.136
  S6                         6.35       0.00       0.00       1.14       2.19        0.04     0.02   0.345
  S7                         6.35       0.00       0.00       2.29       1.07        0.42     0.10   0.168
  S8                         6.35       0.00       0.00       0.99       2.38        0.00     0.00   0.375
  S9                         6.35       0.00       0.00       2.47       1.31        0.00     0.00   0.206
  S10                        6.35       0.00       0.00       2.57       1.27        0.00     0.00   0.201
  S11                        6.35       0.00       0.00       5.21       0.39        0.00     0.00   0.061
  S12                        6.35       0.00       0.00       2.76       1.21        0.00     0.00   0.191
  S13                        6.35       0.00       0.00       2.96       1.12        0.08     0.03   0.177
  S14                        6.35       0.00       0.00       4.74       0.54        0.00     0.00   0.085
  S16                        6.35       0.00       0.00       2.70       1.59        0.09     0.03   0.251
  S17                        6.35       0.00       0.00       2.69       1.20        0.23     0.07   0.189
  S18                        6.35       0.00       0.00       2.16       1.41        0.00     0.00   0.222
  S19                        6.35       0.00       0.00       3.90       0.82        0.02     0.01   0.129
  S20                        6.35       0.00       0.00       2.85       1.18        0.01     0.00   0.186
  S21                        6.35       0.00       0.00       3.59       1.64        0.88     0.25   0.259
  S22                        6.35       0.00       0.00       2.41       1.32        0.00     0.00   0.209
  S23                        6.35       0.00       0.00       4.21       0.72        0.01     0.01   0.113
  S24                        6.35       0.00       0.00       4.03       0.78        0.01     0.01   0.122
  S25                        6.35       0.00       0.00       3.02       1.11        0.01     0.00   0.175
  S27                        6.35       0.00       0.00       3.33       1.02        0.01     0.00   0.160
  S28                        5.84       0.00       0.00       5.83       0.00        0.00     0.00   0.000
  S29                        5.84       0.00       0.00       5.80       0.01        0.00     0.00   0.002
  S30                        6.35       0.00       0.00       6.33       0.01        0.00     0.00   0.001
  S31                        6.35       0.00       0.00       6.34       0.00        0.00     0.00   0.000
  S32                        6.35       0.00       0.00       4.94       0.48        0.00     0.00   0.075
  S33                        6.35       0.00       0.00       2.26       1.37        0.02     0.01   0.216
  S34                        6.35       0.00       0.00       4.15       0.56        0.20     0.05   0.088
  S35                        6.35       0.00       0.00       4.02       0.79        0.00     0.00   0.124
  S36                        6.35       0.00       0.00       5.25       0.37        0.00     0.00   0.059
  S37                        6.35       0.00       0.00       2.53       1.28        0.01     0.00   0.202
  S39                        6.35       0.00       0.00       4.14       0.74        0.11     0.04   0.116
  S40                        6.35       0.00       0.00       4.71       0.55        0.01     0.00   0.086
  S41                        6.35       0.00       0.00       2.82       1.18        0.16     0.06   0.186
  S42                        6.35       0.00       0.00       3.16       1.06        0.11     0.04   0.168
  S43                        6.35       0.00       0.00       4.99       0.46        0.01     0.00   0.072
  S44                        6.35       0.00       0.00       3.21       1.04        0.23     0.07   0.164
  S45                        8.13       0.00       0.00       5.32       1.25        0.00     0.00   0.154
  S47                        8.13       0.00       0.00       4.46       1.62        0.07     0.07   0.199
  S48                        8.13       0.00       0.00       4.99       1.40        0.00     0.00   0.172
  S49                        8.13       0.00       0.00       4.57       1.55        0.29     0.16   0.191
  S51                        8.13       0.00       0.00       7.22       0.40        0.00     0.00   0.050
  S52                        8.13       0.00       0.00       4.83       1.45        0.10     0.09   0.179
  S53                        8.13       0.00       0.00       4.71       1.50        0.21     0.14   0.184
  S54                        8.13       0.00       0.00       5.54       1.13        0.11     0.04   0.139
  S55                        8.13       0.00       0.00       4.84       1.44        0.23     0.08   0.177
  S56                        8.13       0.00       0.00       6.36       0.78        0.00     0.00   0.096
  S57                        8.13       0.00       0.00       4.42       1.63        0.02     0.01   0.200
  S58                        8.13       0.00       0.00       5.11       1.33        0.05     0.02   0.163
  S59                        8.13       0.00       0.00       7.23       0.39        0.01     0.00   0.048
  S60                        8.13       0.00       0.00       6.28       0.81        0.02     0.01   0.100
  S61                        8.13       0.00       0.00       7.36       0.34        0.00     0.00   0.042
  S62                        8.13       0.00       0.00       6.97       0.51        0.01     0.01   0.063
  S63                        6.35       0.00       0.00       5.49       0.29        0.00     0.00   0.046
  S64                        6.35       0.00       0.00       3.39       1.00        0.01     0.01   0.157
  S65                        6.35       0.00       0.00       4.54       0.60        0.10     0.03   0.095
  
  
  ****************************
  Subcatchment Washoff Summary
  ****************************
  
  --------------------------------------------------------------
                                 TSS            TP           TDP
  Subcatchment                    kg            kg            kg
  --------------------------------------------------------------
  S0                           0.008         0.000         0.000
  S1                         208.317         0.125         0.094
  S2                         405.728         0.275         0.192
  S3                          55.483         0.038         0.026
  S4                         233.506         0.139         0.105
  S6                          28.444         0.033         0.021
  S7                         276.959         0.205         0.706
  S8                           1.116         0.000         0.000
  S9                           1.271         0.000         0.000
  S10                         12.810         0.004         0.004
  S11                          1.353         0.000         0.000
  S12                          0.734         0.000         0.000
  S13                        119.058         0.123         0.076
  S14                         18.525         0.008         0.005
  S16                        133.342         0.026         0.022
  S17                        461.290         0.303         0.213
  S18                          1.278         0.000         0.000
  S19                         61.793         0.027         0.019
  S20                         21.247         0.007         0.007
  S21                        828.805         1.285         1.125
  S22                          8.444         0.002         0.002
  S23                         28.886         0.025         0.011
  S24                         50.640         0.029         0.022
  S25                         25.715         0.024         0.012
  S27                         22.642         0.009         0.007
  S28                          0.000         0.000         0.000
  S29                          0.000         0.000         0.000
  S30                          0.000         0.000         0.000
  S31                          0.000         0.000         0.000
  S32                          8.674         0.004         0.002
  S33                         45.643         0.018         0.016
  S34                       1127.886         0.363         0.191
  S35                         13.491         0.006         0.004
  S36                         23.752         0.005         0.004
  S37                         19.447         0.010         0.007
  S39                        362.658         0.193         0.134
  S40                         45.289         0.015         0.011
  S41                        380.985         0.227         0.167
  S42                        311.904         0.152         0.122
  S43                         36.679         0.011         0.007
  S44                        647.221         0.335         0.256
  S45                          1.887         0.001         0.001
  S47                        125.010         0.068         0.053
  S48                         12.448         0.003         0.004
  S49                        511.762         0.307         0.235
  S51                         16.438         0.018         0.005
  S52                        192.387         0.106         0.084
  S53                        375.974         0.223         0.171
  S54                        264.940         0.165         0.112
  S55                        458.657         0.276         0.209
  S56                          0.139         0.000         0.000
  S57                         20.333         0.015         0.012
  S58                        132.768         0.061         0.052
  S59                         68.967         0.015         0.014
  S60                         45.129         0.047         0.020
  S61                         19.412         0.003         0.003
  S62                         37.565         0.046         0.013
  S63                         23.953         0.005         0.003
  S64                         22.279         0.030         0.014
  S65                        491.054         0.136         0.127
  --------------------------------------------------------------
  System                    8852.120         5.552         4.726
  
  
  ******************
  Node Depth Summary
  ******************
  
  ---------------------------------------------------------------------------------
                                 Average  Maximum  Maximum  Time of Max    Reported
                                   Depth    Depth      HGL   Occurrence   Max Depth
  Node                 Type       Meters   Meters   Meters  days hr:min      Meters
  ---------------------------------------------------------------------------------
  FID1936              JUNCTION     0.15     0.32  1376.62     0  04:05        0.10
  FID1955              JUNCTION     0.16     0.28  1376.20     0  04:15        0.08
  FID1960              JUNCTION     0.15     0.24  1376.10     0  04:15        0.07
  FID1965              JUNCTION     0.14     0.23  1376.53     0  04:15        0.07
  FID1968              JUNCTION     0.14     0.20  1376.60     0  04:15        0.06
  FID2239              JUNCTION     0.14     0.25  1374.76     0  04:20        0.08
  FID2241              JUNCTION     0.13     0.18  1373.31     0  04:20        0.06
  FID2242              JUNCTION     0.13     0.19  1374.23     0  04:20        0.06
  FID2244              JUNCTION     0.13     0.18  1374.54     0  04:20        0.05
  FID2440              JUNCTION     0.38     0.50  1374.75     0  04:29        0.15
  FID2442              JUNCTION     0.00     0.00  1375.27     0  00:00        0.00
  FID2446              JUNCTION     0.15     0.38  1376.18     0  04:05        0.12
  FID2447              JUNCTION     0.15     0.34  1376.04     0  04:05        0.10
  FID2455              JUNCTION     0.29     0.42  1374.41     0  04:31        0.13
  FID2711              JUNCTION     0.13     0.19  1370.37     0  04:20        0.06
  FID2719              JUNCTION     0.16     0.26  1370.36     0  04:05        0.08
  FID2720              JUNCTION     0.15     0.26  1370.46     0  04:20        0.08
  FID2824              JUNCTION     0.12     0.17  1371.45     0  04:20        0.05
  FID2827              JUNCTION     0.13     0.21  1371.51     0  04:20        0.06
  FID2828              JUNCTION     0.14     0.21  1371.53     0  04:20        0.06
  FID2832              JUNCTION     0.16     0.25  1370.85     0  04:20        0.08
  FID2833              JUNCTION     0.20     0.36  1370.98     0  04:20        0.11
  FID2839              JUNCTION     0.16     0.25  1371.45     0  04:10        0.08
  FID2873              JUNCTION     0.15     0.27  1370.97     0  04:20        0.08
  FID2964              JUNCTION     0.16     0.25  1371.03     0  04:20        0.08
  FID2965              JUNCTION     0.37     0.61  1370.87     0  04:38        0.19
  FID4584              JUNCTION     0.10     0.19  1371.53     0  04:20        0.06
  FID5068              JUNCTION     0.13     0.18  1375.56     0  04:20        0.06
  FID5072              JUNCTION     0.46     0.63  1373.92     0  04:41        0.19
  FID5140              JUNCTION     0.15     0.23  1373.45     0  03:30        0.07
  FID5435              JUNCTION     0.16     0.26  1373.01     0  04:20        0.08
  FID5437              JUNCTION     0.12     0.17  1373.12     0  04:20        0.05
  FID5503              JUNCTION     0.11     0.16  1371.49     0  04:20        0.05
  FID5504              JUNCTION     0.15     0.21  1371.57     0  04:20        0.06
  FID5527              JUNCTION     0.14     0.19  1372.69     0  04:20        0.06
  FID5568              JUNCTION     0.43     0.60  1372.99     0  04:50        0.18
  FID5784              JUNCTION     0.44     0.60  1372.60     0  04:55        0.18
  FID5785              JUNCTION     0.13     0.21  1374.64     0  04:21        0.06
  AFID6926             JUNCTION     0.14     0.20  1370.00     0  04:45        0.06
  AFID7360             JUNCTION     0.42     0.69  1370.82     0  04:39        0.21
  AFID7363             JUNCTION     0.41     0.67  1370.84     0  04:38        0.20
  AFID7376             JUNCTION     0.17     0.30  1371.53     0  04:20        0.09
  AFID7377             JUNCTION     0.36     0.54  1371.22     0  04:31        0.16
  AFID7705             JUNCTION     0.50     0.55  1375.52     0  04:25        0.17
  AFID7706             JUNCTION     0.55     0.61  1375.53     0  04:25        0.19
  AFID7792             JUNCTION     0.16     0.29  1375.09     0  04:20        0.09
  AFID8223             JUNCTION     0.44     0.60  1372.61     0  04:55        0.18
  J1                   JUNCTION     0.74     0.75  1375.74     0  04:30        0.23
  FID4901              JUNCTION     0.46     0.50  1375.57     0  04:27        0.15
  J9                   JUNCTION     0.62     0.64  1375.73     0  04:30        0.19
  J11                  JUNCTION     0.47     0.49  1375.69     0  04:30        0.15
  J12                  JUNCTION     0.46     0.49  1375.61     0  04:28        0.15
  J13                  JUNCTION     0.46     0.50  1375.58     0  04:27        0.15
  FID4902              JUNCTION     0.48     0.52  1375.57     0  04:27        0.16
  J14                  JUNCTION     0.37     0.45  1375.36     0  04:21        0.14
  J15                  JUNCTION     0.34     0.44  1375.10     0  04:23        0.13
  J16                  JUNCTION     0.35     0.45  1375.09     0  04:23        0.14
  FID2449              JUNCTION     0.39     0.50  1374.82     0  04:28        0.15
  J17                  JUNCTION     0.27     0.42  1374.39     0  04:31        0.13
  J19                  JUNCTION     0.40     0.57  1374.11     0  04:38        0.17
  FID5069              JUNCTION     0.49     0.65  1373.91     0  04:41        0.20
  FID5139              JUNCTION     0.44     0.61  1372.96     0  04:50        0.19
  J24                  JUNCTION     0.45     0.61  1372.98     0  04:50        0.19
  FID4984              JUNCTION     0.46     0.63  1372.59     0  04:56        0.19
  FID2669              JUNCTION     0.31     0.52  1368.96     0  04:44        0.16
  FID2712              JUNCTION     0.33     0.54  1369.73     0  04:40        0.16
  FID2718              JUNCTION     0.33     0.55  1369.79     0  04:40        0.17
  FID2838              JUNCTION     0.50     0.78  1370.72     0  04:39        0.24
  FID2825              JUNCTION     0.55     0.85  1370.75     0  04:39        0.26
  FID2823              JUNCTION     0.59     0.90  1370.77     0  04:39        0.27
  FID5505              JUNCTION     0.49     0.77  1370.79     0  04:39        0.23
  FID5436              JUNCTION     0.47     0.65  1371.97     0  04:22        0.20
  FID5438              JUNCTION     0.40     0.56  1371.99     0  04:32        0.17
  J49                  JUNCTION     0.49     0.54  1375.56     0  04:27        0.16
  J50                  JUNCTION     0.53     0.58  1375.54     0  04:26        0.18
  J51                  JUNCTION     0.58     0.64  1375.53     0  04:25        0.19
  J52                  JUNCTION     0.59     0.65  1375.53     0  04:25        0.20
  J53                  JUNCTION     0.38     0.45  1375.37     0  04:21        0.14
  J54                  JUNCTION     0.38     0.45  1375.40     0  04:22        0.14
  J55                  JUNCTION     0.43     0.48  1375.51     0  04:24        0.15
  J56                  JUNCTION     0.41     0.46  1375.49     0  04:24        0.14
  J57                  JUNCTION     0.38     0.44  1375.47     0  04:24        0.13
  J58                  JUNCTION     0.38     0.44  1375.42     0  04:23        0.14
  FID1935              JUNCTION     0.38     0.46  1375.35     0  04:21        0.14
  J59                  JUNCTION     0.38     0.45  1375.33     0  04:22        0.14
  J60                  JUNCTION     0.37     0.45  1375.27     0  04:23        0.14
  J61                  JUNCTION     0.35     0.43  1375.20     0  04:24        0.13
  J62                  JUNCTION     0.34     0.42  1375.17     0  04:24        0.13
  J63                  JUNCTION     0.35     0.44  1375.13     0  04:23        0.14
  J64                  JUNCTION     0.34     0.43  1375.05     0  04:24        0.13
  J65                  JUNCTION     0.30     0.40  1374.98     0  04:26        0.12
  J66                  JUNCTION     0.38     0.50  1374.71     0  04:30        0.15
  J67                  JUNCTION     0.37     0.49  1374.64     0  04:30        0.15
  J68                  JUNCTION     0.36     0.47  1374.54     0  04:31        0.14
  J69                  JUNCTION     0.48     0.63  1374.36     0  04:32        0.19
  J70                  JUNCTION     0.46     0.62  1374.27     0  04:34        0.19
  J71                  JUNCTION     0.44     0.60  1374.19     0  04:36        0.18
  J72                  JUNCTION     0.47     0.64  1373.98     0  04:40        0.19
  J73                  JUNCTION     0.49     0.65  1373.88     0  04:41        0.20
  J74                  JUNCTION     0.49     0.66  1373.64     0  04:44        0.20
  J75                  JUNCTION     0.50     0.67  1373.51     0  04:46        0.20
  J76                  JUNCTION     0.44     0.61  1372.94     0  04:51        0.19
  J77                  JUNCTION     0.44     0.61  1372.81     0  04:52        0.19
  J78                  JUNCTION     0.44     0.61  1372.68     0  04:54        0.18
  J79                  JUNCTION     0.44     0.60  1372.61     0  04:55        0.18
  J80                  JUNCTION     0.38     0.53  1372.02     0  04:54        0.16
  J81                  JUNCTION     0.45     0.63  1371.62     0  04:33        0.19
  J82                  JUNCTION     0.45     0.62  1371.55     0  04:33        0.19
  J83                  JUNCTION     0.37     0.55  1371.36     0  04:33        0.17
  J84                  JUNCTION     0.33     0.50  1371.14     0  04:33        0.15
  J85                  JUNCTION     0.34     0.52  1371.04     0  04:35        0.16
  J86                  JUNCTION     0.35     0.56  1370.93     0  04:37        0.17
  J87                  JUNCTION     0.40     0.65  1370.84     0  04:38        0.20
  J88                  JUNCTION     0.47     0.75  1370.80     0  04:39        0.23
  J89                  JUNCTION     0.51     0.80  1370.79     0  04:39        0.24
  J90                  JUNCTION     0.47     0.76  1370.71     0  04:39        0.23
  J91                  JUNCTION     0.47     0.76  1370.64     0  04:39        0.23
  J92                  JUNCTION     0.47     0.76  1370.59     0  04:40        0.23
  J93                  JUNCTION     0.46     0.76  1370.48     0  04:40        0.23
  J94                  JUNCTION     0.46     0.75  1370.41     0  04:40        0.23
  J95                  JUNCTION     0.46     0.75  1370.39     0  04:40        0.23
  J96                  JUNCTION     0.46     0.74  1370.30     0  04:40        0.23
  J97                  JUNCTION     0.45     0.73  1370.23     0  04:41        0.22
  J98                  JUNCTION     0.44     0.72  1370.16     0  04:41        0.22
  J99                  JUNCTION     0.43     0.70  1370.09     0  04:42        0.21
  J100                 JUNCTION     0.41     0.67  1370.03     0  04:42        0.20
  J101                 JUNCTION     0.40     0.64  1369.96     0  04:42        0.19
  J102                 JUNCTION     0.33     0.55  1369.82     0  04:41        0.17
  J103                 JUNCTION     0.33     0.55  1369.77     0  04:40        0.17
  J104                 JUNCTION     0.32     0.54  1369.70     0  04:40        0.16
  J105                 JUNCTION     0.32     0.53  1369.65     0  04:41        0.16
  J106                 JUNCTION     0.31     0.51  1369.59     0  04:41        0.16
  J107                 JUNCTION     0.31     0.51  1369.45     0  04:42        0.16
  J108                 JUNCTION     0.31     0.51  1369.31     0  04:42        0.16
  J109                 JUNCTION     0.31     0.51  1369.20     0  04:43        0.16
  J110                 JUNCTION     0.30     0.51  1369.10     0  04:43        0.16
  J111                 JUNCTION     0.30     0.51  1368.99     0  04:44        0.16
  J112                 JUNCTION     0.31     0.52  1368.84     0  04:44        0.16
  J113                 JUNCTION     0.30     0.52  1368.74     0  04:45        0.16
  J114                 JUNCTION     0.30     0.52  1368.63     0  04:45        0.16
  J115                 JUNCTION     0.30     0.52  1368.57     0  04:45        0.16
  J116                 JUNCTION     0.30     0.52  1368.50     0  04:46        0.16
  J117                 JUNCTION     0.30     0.52  1368.40     0  04:46        0.16
  J118                 JUNCTION     0.31     0.52  1368.30     0  04:46        0.16
  J119                 JUNCTION     0.32     0.53  1368.23     0  04:46        0.16
  J120                 JUNCTION     0.34     0.55  1368.15     0  04:46        0.17
  FID2451              JUNCTION     0.38     0.49  1374.78     0  04:28        0.15
  J121                 JUNCTION     0.35     0.53  1371.28     0  04:32        0.16
  J122                 JUNCTION     0.35     0.53  1371.25     0  04:32        0.16
  FID3706              JUNCTION     0.46     0.76  1370.49     0  04:40        0.23
  FID2831              JUNCTION     0.46     0.75  1370.38     0  04:40        0.23
  FID2689              OUTFALL      0.21     0.35  1367.85     0  04:46        0.11
  
  
  *******************
  Node Inflow Summary
  *******************
  
  -------------------------------------------------------------------------------------------------
                                  Maximum  Maximum                  Lateral       Total        Flow
                                  Lateral    Total  Time of Max      Inflow      Inflow     Balance
                                   Inflow   Inflow   Occurrence      Volume      Volume       Error
  Node                 Type           CMS      CMS  days hr:min    10^6 ltr    10^6 ltr     Percent
  -------------------------------------------------------------------------------------------------
  FID1936              JUNCTION     0.090    0.090     0  04:05      0.0975      0.0975       0.178
  FID1955              JUNCTION     0.081    0.081     0  04:15       0.234       0.234       0.076
  FID1960              JUNCTION     0.041    0.041     0  04:15       0.107       0.107       0.163
  FID1965              JUNCTION     0.021    0.021     0  04:15       0.054       0.054       0.326
  FID1968              JUNCTION     0.006    0.006     0  04:15      0.0163      0.0163       1.084
  FID2239              JUNCTION     0.006    0.006     0  04:20      0.0149      0.0149       2.024
  FID2241              JUNCTION     0.000    0.005     0  04:20           0      0.0138       1.265
  FID2242              JUNCTION     0.005    0.005     0  04:20       0.014       0.014       1.313
  FID2244              JUNCTION     0.003    0.003     0  04:20     0.00546     0.00546       3.299
  FID2440              JUNCTION     0.000    0.735     0  04:27           0        13.2       0.291
  FID2442              JUNCTION     0.000    0.000     0  00:00           0           0       0.000 ltr
  FID2446              JUNCTION     0.069    0.069     0  04:05       0.069       0.069       1.393
  FID2447              JUNCTION     0.000    0.068     0  04:05           0       0.068      -0.469
  FID2455              JUNCTION     0.036    0.756     0  04:30       0.108        13.1       0.281
  FID2711              JUNCTION     0.000    0.007     0  04:20           0      0.0168       1.019
  FID2719              JUNCTION     0.026    0.026     0  04:20      0.0787      0.0787       0.232
  FID2720              JUNCTION     0.008    0.008     0  04:20       0.017       0.017       1.320
  FID2824              JUNCTION     0.000    0.002     0  04:20    0.000391     0.00362       4.806
  FID2827              JUNCTION     0.000    0.002     0  04:20    0.000281      0.0034       5.263
  FID2828              JUNCTION     0.002    0.002     0  04:20     0.00332     0.00332       6.553
  FID2832              JUNCTION     0.000    0.066     0  04:20           0       0.213       0.097
  FID2833              JUNCTION     0.066    0.066     0  04:20       0.214       0.214       0.131
  FID2839              JUNCTION     0.102    0.102     0  04:10       0.418       0.418       0.060
  FID2873              JUNCTION     0.017    0.017     0  04:20      0.0412      0.0412       1.156
  FID2964              JUNCTION     0.029    0.029     0  04:20      0.0886      0.0886       0.198
  FID2965              JUNCTION     0.000    0.905     0  04:33           0        12.6       0.410
  FID4584              JUNCTION     0.000    0.001     0  04:16           0    0.000251     162.551
  FID5068              JUNCTION     0.003    0.003     0  04:20      0.0067      0.0067       2.667
  FID5072              JUNCTION     0.040    0.772     0  04:38       0.109        12.7       0.271
  FID5140              JUNCTION     0.046    0.046     0  03:30       0.198       0.198       0.078
  FID5435              JUNCTION     0.247    0.247     0  04:20       0.881       0.881       0.021
  FID5437              JUNCTION     0.001    0.001     0  04:20     0.00183     0.00183      10.533
  FID5503              JUNCTION     0.000    0.000     0  04:10    0.000267    0.000267     186.676
  FID5504              JUNCTION     0.026    0.026     0  04:20      0.0848      0.0848       0.210
  FID5527              JUNCTION     0.007    0.007     0  04:20      0.0176      0.0176       1.011
  FID5568              JUNCTION     0.001    0.767     0  04:47     0.00262        12.3       0.966
  FID5784              JUNCTION     0.000    0.780     0  04:52           0        12.3       0.137
  FID5785              JUNCTION     0.000    0.006     0  04:20           0      0.0146       1.462
  AFID6926             JUNCTION     0.016    0.016     0  04:45       0.082       0.082       0.218
  AFID7360             JUNCTION     0.000    0.900     0  04:36     0.00016        12.5       0.302
  AFID7363             JUNCTION     0.000    0.901     0  04:35           0        12.5       0.147
  AFID7376             JUNCTION     0.066    0.066     0  04:20       0.231       0.231       0.078
  AFID7377             JUNCTION     0.000    0.900     0  04:30           0        12.7       0.155
  AFID7705             JUNCTION     0.000    0.549     0  04:17           0        13.5       0.301
  AFID7706             JUNCTION     0.000    0.517     0  04:19           0        13.4       0.285
  AFID7792             JUNCTION     0.071    0.071     0  04:20       0.235       0.235       0.081
  AFID8223             JUNCTION     0.000    0.779     0  04:52           0        12.3       0.031
  J1                   JUNCTION     0.661    0.661     0  04:15          21          21       0.162
  FID4901              JUNCTION     0.000    0.453     0  04:30           0        13.6       0.258
  J9                   JUNCTION     0.000    0.660     0  04:15           0          21       0.330
  J11                  JUNCTION     0.000    0.659     0  04:15           0        20.9       0.581
  J12                  JUNCTION     0.004    0.660     0  04:30     0.00995        20.8       0.636
  J13                  JUNCTION    -0.220    0.663     0  04:36       -7.13        20.6      -0.201
  FID4902              JUNCTION     0.000    0.456     0  04:30           0        13.6       0.406
  J14                  JUNCTION     0.137    0.604     0  04:20       0.209        13.3       0.225
  J15                  JUNCTION     0.163    0.696     0  04:21       0.291        13.4       0.192
  J16                  JUNCTION     0.005    0.695     0  04:21     0.00404        13.4       0.193
  FID2449              JUNCTION     0.001    0.684     0  04:25    0.000582        13.2       1.530
  J17                  JUNCTION     0.056    0.789     0  04:30        0.16        13.3       0.141
  J19                  JUNCTION     0.007    0.775     0  04:33       0.014          13       1.653
  FID5069              JUNCTION     0.000    0.772     0  04:39           0        12.7       0.241
  FID5139              JUNCTION     0.000    0.776     0  04:49           0        12.4       0.074
  J24                  JUNCTION     0.007    0.765     0  04:50      0.0159        12.2       0.109
  FID4984              JUNCTION     0.000    0.780     0  04:52           0        12.3       1.145
  FID2669              JUNCTION     0.000    0.999     0  04:43           0        12.5       0.107
  FID2712              JUNCTION     0.000    0.984     0  04:39           0        12.6       0.129
  FID2718              JUNCTION     0.000    0.980     0  04:39           0        12.6       0.094
  FID2838              JUNCTION     0.000    0.939     0  04:36           0        12.7       0.263
  FID2825              JUNCTION     0.000    0.909     0  04:40           0        12.3       0.433
  FID2823              JUNCTION     0.000    0.909     0  04:38           0        12.4       0.713
  FID5505              JUNCTION     0.000    0.910     0  04:36           0        12.5       0.191
  FID5436              JUNCTION     0.000    0.873     0  04:20           0        12.9       1.139
  FID5438              JUNCTION     0.000    0.779     0  04:57           0        12.1       0.209
  J49                  JUNCTION     0.000    0.457     0  04:30           0        13.5       0.653
  J50                  JUNCTION     0.000    0.459     0  04:35     0.00012        13.5       1.133
  J51                  JUNCTION     0.000    0.465     0  04:36           0        13.3       0.904
  J52                  JUNCTION     0.000    0.470     0  04:36           0        13.2       0.267
  J53                  JUNCTION     0.000    0.550     0  04:30           0        13.1       0.245
  J54                  JUNCTION     0.000    0.548     0  04:30           0        13.2       0.362
  J55                  JUNCTION     0.000    0.548     0  04:17           0        13.4       0.341
  J56                  JUNCTION     0.000    0.546     0  04:17           0        13.4       0.369
  J57                  JUNCTION     0.000    0.544     0  04:17           0        13.3       0.463
  J58                  JUNCTION     0.001    0.545     0  04:30     0.00293        13.3       0.496
  FID1935              JUNCTION     0.000    0.647     0  04:20           0        13.4       0.291
  J59                  JUNCTION     0.000    0.641     0  04:20           0        13.3       0.411
  J60                  JUNCTION     0.005    0.633     0  04:20     0.00407        13.3       0.641
  J61                  JUNCTION     0.000    0.622     0  04:22           0        13.2       0.431
  J62                  JUNCTION     0.000    0.620     0  04:24           0        13.2       0.195
  J63                  JUNCTION     0.000    0.620     0  04:24           0        13.1       0.198
  J64                  JUNCTION     0.000    0.693     0  04:22           0        13.3       0.201
  J65                  JUNCTION     0.013    0.694     0  04:22       0.013        13.3       1.175
  J66                  JUNCTION     0.000    0.734     0  04:28           0        13.2       0.367
  J67                  JUNCTION     0.000    0.734     0  04:29           0        13.2       0.545
  J68                  JUNCTION     0.004    0.734     0  04:30     0.00886        13.1       0.585
  J69                  JUNCTION     0.000    0.788     0  04:30           0        13.2       0.593
  J70                  JUNCTION     0.002    0.785     0  04:30     0.00446        13.2       0.760
  J71                  JUNCTION     0.000    0.779     0  04:32           0        13.1       0.553
  J72                  JUNCTION     0.005    0.767     0  04:37       0.012        12.8       1.813
  J73                  JUNCTION     0.000    0.772     0  04:39           0        12.6       0.549
  J74                  JUNCTION     0.000    0.771     0  04:41           0        12.6       0.803
  J75                  JUNCTION     0.002    0.768     0  04:43     0.00464        12.5       1.248
  J76                  JUNCTION     0.000    0.776     0  04:49           0        12.4       0.303
  J77                  JUNCTION     0.031    0.782     0  04:49       0.101        12.5       0.562
  J78                  JUNCTION     0.000    0.781     0  04:50           0        12.4       0.420
  J79                  JUNCTION     0.000    0.779     0  04:52           0        12.3       0.153
  J80                  JUNCTION     0.005    0.778     0  04:56      0.0118        12.2       0.954
  J81                  JUNCTION     0.001    0.860     0  04:22     0.00206        12.8       1.679
  J82                  JUNCTION     0.000    0.855     0  04:32           0        12.6       0.668
  J83                  JUNCTION     0.000    0.854     0  04:33           0        12.5       0.513
  J84                  JUNCTION     0.000    0.900     0  04:30           0        12.6       0.276
  J85                  JUNCTION     0.000    0.899     0  04:31           0        12.6       0.515
  J86                  JUNCTION     0.000    0.896     0  04:33           0        12.5       0.544
  J87                  JUNCTION     0.002    0.902     0  04:34     0.00318        12.5       0.229
  J88                  JUNCTION     0.000    0.899     0  04:37           0        12.4       0.343
  J89                  JUNCTION     0.000    0.910     0  04:37           0        12.4       0.523
  J90                  JUNCTION     0.000    0.938     0  04:36           0        12.6       0.189
  J91                  JUNCTION     0.000    0.938     0  04:37           0        12.6       0.262
  J92                  JUNCTION     0.000    0.937     0  04:38    1.29e-06        12.6       0.329
  J93                  JUNCTION     0.000    0.943     0  04:39           0        12.5       0.176
  J94                  JUNCTION     0.000    0.943     0  04:40    2.34e-06        12.5       0.199
  J95                  JUNCTION     0.000    0.943     0  04:41           0        12.5       0.076
  J96                  JUNCTION     0.000    0.969     0  04:38           0        12.7       0.284
  J97                  JUNCTION     0.000    0.968     0  04:39           0        12.6       0.240
  J98                  JUNCTION     0.000    0.968     0  04:40           0        12.6       0.212
  J99                  JUNCTION     0.000    0.967     0  04:41           0        12.6       0.181
  J100                 JUNCTION     0.000    0.967     0  04:41           0        12.6       0.153
  J101                 JUNCTION     0.000    0.967     0  04:42           0        12.5       0.176
  J102                 JUNCTION     0.000    0.967     0  04:42           0        12.5       0.140
  J103                 JUNCTION     0.000    0.980     0  04:40           0        12.6       0.105
  J104                 JUNCTION     0.000    0.984     0  04:39           0        12.5       0.138
  J105                 JUNCTION     0.000    0.983     0  04:40           0        12.5       0.169
  J106                 JUNCTION     0.000    0.983     0  04:40           0        12.5       0.190
  J107                 JUNCTION     0.000    0.983     0  04:41           0        12.5       0.196
  J108                 JUNCTION     0.000    0.983     0  04:41    7.66e-06        12.5       0.177
  J109                 JUNCTION     0.000    0.983     0  04:42           0        12.4       0.150
  J110                 JUNCTION     0.000    0.983     0  04:42           0        12.4       0.145
  J111                 JUNCTION     0.000    0.983     0  04:43    6.76e-05        12.4       0.108
  J112                 JUNCTION     0.000    0.999     0  04:44           0        12.5       0.151
  J113                 JUNCTION     0.000    0.998     0  04:44           0        12.4       0.148
  J114                 JUNCTION     0.000    0.998     0  04:44           0        12.4       0.125
  J115                 JUNCTION     0.000    0.998     0  04:45           0        12.4       0.092
  J116                 JUNCTION     0.000    0.998     0  04:45    2.11e-06        12.4       0.122
  J117                 JUNCTION     0.000    0.998     0  04:45           0        12.4       0.151
  J118                 JUNCTION     0.000    0.998     0  04:46           0        12.4       0.132
  J119                 JUNCTION     0.000    0.998     0  04:46           0        12.3       0.130
  J120                 JUNCTION     0.000    0.998     0  04:46           0        12.3       0.160
  FID2451              JUNCTION     0.000    0.686     0  04:26           0        13.1       0.284
  J121                 JUNCTION     0.003    0.855     0  04:34     0.00623        12.5       0.153
  J122                 JUNCTION     0.000    0.855     0  04:35    0.000283        12.4       0.133
  FID3706              JUNCTION     0.000    0.943     0  04:38           0        12.6       0.259
  FID2831              JUNCTION     0.000    0.970     0  04:37           0        12.7       0.175
  FID2689              OUTFALL      0.000    0.998     0  04:46           0        12.3       0.000
  
  
  **********************
  Node Surcharge Summary
  **********************
  
  No nodes were surcharged.
  
  
  *********************
  Node Flooding Summary
  *********************
  
  No nodes were flooded.
  
  
  ***********************
  Outfall Loading Summary
  ***********************
  
  -----------------------------------------------------------------------------------------------------
                         Flow       Avg       Max       Total         Total         Total         Total
                         Freq      Flow      Flow      Volume           TSS            TP           TDP
  Outfall Node           Pcnt       CMS       CMS    10^6 ltr            kg            kg            kg
  -----------------------------------------------------------------------------------------------------
  FID2689               73.36     0.656     0.998      12.309      8493.617         5.811         4.963
  -----------------------------------------------------------------------------------------------------
  System                73.36     0.656     0.998      12.309      8493.617         5.811         4.963
  
  
  ********************
  Link Flow Summary
  ********************
  
  -----------------------------------------------------------------------------
                                 Maximum  Time of Max   Maximum    Max/    Max/
                                  |Flow|   Occurrence   |Veloc|    Full    Full
  Link                 Type          CMS  days hr:min     m/sec    Flow   Depth
  -----------------------------------------------------------------------------
  FID1123              CONDUIT     0.017     0  04:20      0.75    0.28    0.35
  FID1139              CONDUIT     0.025     0  04:05      0.93    0.18    0.29
  FID1148              CONDUIT     0.066     0  04:20      0.74    0.16    0.19
  FID1149              CONDUIT     0.066     0  04:20      1.38    0.02    0.20
  FID3364              CONDUIT     0.065     0  04:20      0.43    0.05    0.28
  FID3671              CONDUIT     0.006     0  04:15      0.96    0.05    0.15
  FID3672              CONDUIT     0.021     0  04:15      1.35    0.15    0.26
  FID3762              CONDUIT     0.041     0  04:15      1.03    0.12    0.38
  FID3765              CONDUIT     0.081     0  04:15      1.65    0.23    0.45
  FID4112              CONDUIT     0.089     0  04:05      1.43    0.16    0.27
  FID4186              CONDUIT     0.005     0  04:20      0.73    0.02    0.10
  FID4187              CONDUIT     0.005     0  04:20      1.14    0.01    0.08
  FID4201              CONDUIT     0.068     0  04:05      1.07    0.69    0.55
  FID4202              CONDUIT     0.067     0  04:05      1.20    0.49    0.49
  FID4203              CONDUIT     0.000     0  00:00      0.00    0.00    0.18
  FID4299              CONDUIT     0.003     0  04:20      0.73    0.01    0.08
  FID4372              CONDUIT     0.046     0  03:30      0.42    0.01    0.23
  FID4498              CONDUIT     0.029     0  04:20      0.52    0.10    0.58
  FID4806              CONDUIT     0.247     0  04:20      5.38    0.03    0.12
  FID4807              CONDUIT     0.001     0  04:20      0.56    0.01    0.05
  FID4882              CONDUIT     0.000     0  04:20      0.01    0.00    0.52
  FID4884              CONDUIT     0.026     0  04:20      1.41    0.01    0.07
  FID4914              CONDUIT     0.006     0  04:20      0.10    0.02    0.55
  FID4915              CONDUIT     0.002     0  04:20      0.15    0.05    0.15
  FID4916              CONDUIT     0.002     0  04:20      0.22    0.04    0.11
  FID4917              CONDUIT     0.002     0  04:20      0.52    0.01    0.34
  FID5307              CONDUIT     0.006     0  04:20      0.35    0.10    0.20
  FID5308              CONDUIT     0.003     0  04:20      0.91    0.01    0.08
  FID5312              CONDUIT     0.005     0  04:21      0.48    0.03    0.11
  FID5865              CONDUIT     0.102     0  04:10      2.98    0.03    0.15
  C9                   CHANNEL     0.660     0  04:15      0.62    0.08    0.49
  C12                  CHANNEL     0.658     0  04:34      0.42    0.34    0.57
  C13                  CHANNEL     0.663     0  04:36      0.57    0.34    0.58
  C14                  CHANNEL     0.444     0  04:37      0.57    0.23    0.58
  C52                  CONDUIT     0.070     0  04:20      0.67    0.11    0.39
  C130                 CONDUIT     0.007     0  04:20      0.33    0.12    0.18
  C131                 CONDUIT     0.007     0  04:20      0.99    0.01    0.19
  C139                 CONDUIT     0.001     0  04:16      0.04    0.01    0.23
  C191                 CHANNEL     0.457     0  04:30      0.44    0.23    0.61
  C193                 CHANNEL     0.465     0  04:36      0.34    0.24    0.71
  C194                 CHANNEL     0.470     0  04:36      0.28    0.24    0.75
  C195                 CHANNEL     0.472     0  04:36      0.33    0.11    0.59
  C196                 CONDUIT     0.453     0  04:30      0.41    0.39    0.64
  C197                 CONDUIT     0.516     0  04:30      0.23    0.28    0.83
  C198                 CHANNEL     0.548     0  04:17      0.25    0.13    0.49
  C199                 CHANNEL     0.546     0  04:17      0.27    2.80    0.57
  C200                 CHANNEL     0.544     0  04:17      0.30    2.52    0.54
  C201                 CHANNEL     0.544     0  04:30      0.29    0.19    0.44
  C202                 CHANNEL     0.548     0  04:30      0.30    0.19    0.44
  C203                 CHANNEL     0.550     0  04:30      0.29    0.19    0.45
  C204                 CHANNEL     0.553     0  04:30      0.43    0.19    0.45
  C205                 CONDUIT     0.599     0  04:21      0.28    0.49    0.55
  C206                 CHANNEL     0.641     0  04:20      0.35    0.22    0.46
  C207                 CHANNEL     0.632     0  04:20      0.33    0.22    0.45
  C208                 CHANNEL     0.622     0  04:22      0.33    0.22    0.44
  C209                 CHANNEL     0.620     0  04:24      0.34    0.22    0.43
  C210                 CHANNEL     0.620     0  04:24      0.41    0.22    0.50
  C211                 CHANNEL     0.621     0  04:25      0.39    0.26    0.45
  C212                 CONDUIT     0.694     0  04:22      0.32    0.47    0.54
  C213                 CHANNEL     0.693     0  04:22      0.44    0.29    0.45
  C214                 CHANNEL     0.691     0  04:22      0.48    0.29    0.43
  C215                 CONDUIT     0.684     0  04:25      0.31    0.46    0.55
  C216                 CONDUIT     0.680     0  04:27      0.39    0.59    0.47
  C217                 CONDUIT     0.686     0  04:26      0.33    0.32    0.36
  C218                 CHANNEL     0.734     0  04:28      0.40    0.31    0.51
  C219                 CHANNEL     0.734     0  04:29      0.40    0.31    0.50
  C220                 CHANNEL     0.732     0  04:30      0.41    0.31    0.49
  C221                 CHANNEL     0.733     0  04:31      0.45    0.31    0.45
  C222                 CONDUIT     0.754     0  04:30      0.42    0.59    0.51
  C223                 CHANNEL     0.788     0  04:30      1.35    0.12    0.46
  C224                 CHANNEL     0.784     0  04:31      0.39    0.60    0.73
  C225                 CHANNEL     0.779     0  04:32      0.40    0.59    0.71
  C226                 CHANNEL     0.774     0  04:33      0.49    0.59    0.68
  C227                 CONDUIT     0.766     0  04:37      0.30    0.73    0.73
  C228                 CHANNEL     0.763     0  04:40      0.51    0.37    0.58
  C229                 CONDUIT     0.772     0  04:39      0.23    0.16    0.43
  C230                 CHANNEL     0.772     0  04:39      0.51    0.37    0.61
  C231                 CHANNEL     0.771     0  04:41      0.49    0.37    0.61
  C232                 CHANNEL     0.768     0  04:43      0.52    0.37    0.61
  C233                 CHANNEL     0.767     0  04:47      0.51    0.37    0.59
  C234                 CONDUIT     0.765     0  04:50      0.37    0.37    0.44
  C235                 CHANNEL     0.765     0  04:50      0.54    0.37    0.56
  C236                 CHANNEL     0.776     0  04:49      0.50    0.44    0.63
  C237                 CHANNEL     0.775     0  04:50      0.50    0.44    0.63
  C238                 CHANNEL     0.781     0  04:50      0.51    0.44    0.63
  C239                 CHANNEL     0.779     0  04:52      0.51    0.44    0.63
  C240                 CHANNEL     0.779     0  04:52      0.57    0.43    0.63
  C241                 CHANNEL     0.779     0  04:52      0.71    0.44    0.63
  C242                 CONDUIT     0.779     0  04:52      0.44    0.32    0.50
  C243                 CHANNEL     0.778     0  04:56      0.53    0.44    0.60
  C244                 CHANNEL     0.779     0  04:57      0.69    0.15    0.35
  C245                 CONDUIT     0.779     0  04:58      0.41    0.25    0.47
  C246                 CHANNEL     0.855     0  04:23      0.43    0.32    0.56
  C247                 CHANNEL     0.855     0  04:32      0.44    0.32    0.54
  C248                 CHANNEL     0.854     0  04:33      0.47    0.32    0.51
  C249                 CHANNEL     0.855     0  04:35      2.46    0.40    0.51
  C250                 CONDUIT     0.855     0  04:35      0.51    0.37    0.42
  C251                 CONDUIT     0.856     0  04:35      0.51    0.37    0.42
  C252                 CHANNEL     0.900     0  04:30      1.45    0.43    0.49
  C253                 CHANNEL     0.899     0  04:31      2.34    0.24    0.48
  C254                 CHANNEL     0.896     0  04:33      1.11    0.24    0.51
  C255                 CHANNEL     0.893     0  04:35      0.42    0.24    0.55
  C256                 CHANNEL     0.902     0  04:35      0.42    0.24    0.60
  C257                 CHANNEL     0.901     0  04:35      1.97    0.24    0.63
  C258                 CONDUIT     0.900     0  04:36      0.47    0.39    0.53
  C259                 CHANNEL     0.899     0  04:37      0.43    0.24    0.68
  C260                 CHANNEL     0.899     0  04:38      0.42    0.24    0.72
  C261                 CHANNEL     0.910     0  04:37      1.19    0.24    0.74
  C262                 CHANNEL     0.909     0  04:38      0.42    0.24    0.80
  C263                 CHANNEL     0.909     0  04:40      0.39    0.25    0.55
  C264                 CONDUIT     0.910     0  04:41      0.37    0.55    0.59
  C265                 CHANNEL     0.938     0  04:36      0.48    0.25    0.49
  C266                 CHANNEL     0.938     0  04:37      0.49    0.22    0.53
  C267                 CHANNEL     0.937     0  04:38      0.51    0.22    0.53
  C268                 CHANNEL     0.937     0  04:40      0.48    0.22    0.53
  C269                 CHANNEL     0.943     0  04:39      0.53    0.22    0.53
  C270                 CHANNEL     0.943     0  04:40      0.49    0.22    0.53
  C271                 CHANNEL     0.943     0  04:41      0.49    0.22    0.53
  C272                 CHANNEL     0.943     0  04:41      0.49    0.22    0.53
  C273                 CHANNEL     0.969     0  04:38      0.51    0.22    0.52
  C274                 CHANNEL     0.968     0  04:39      0.52    0.22    0.51
  C275                 CHANNEL     0.968     0  04:40      0.54    0.22    0.50
  C276                 CHANNEL     0.967     0  04:41      0.56    0.22    0.49
  C277                 CHANNEL     0.967     0  04:41      0.59    0.22    0.48
  C278                 CHANNEL     0.967     0  04:42      0.63    0.22    0.46
  C279                 CHANNEL     0.967     0  04:42      0.72    0.22    0.41
  C280                 CHANNEL     0.968     0  04:43      0.53    0.39    0.56
  C281                 CHANNEL     0.980     0  04:40      0.54    0.39    0.56
  C282                 CHANNEL     0.980     0  04:40      0.55    0.39    0.55
  C283                 CHANNEL     0.984     0  04:39      0.55    0.39    0.55
  C284                 CHANNEL     0.983     0  04:40      0.56    0.39    0.54
  C285                 CHANNEL     0.983     0  04:40      0.58    0.39    0.53
  C286                 CHANNEL     0.983     0  04:41      0.69    0.28    0.52
  C287                 CHANNEL     0.983     0  04:41      0.69    0.28    0.52
  C288                 CHANNEL     0.983     0  04:42      0.69    0.28    0.52
  C289                 CHANNEL     0.983     0  04:42      0.69    0.28    0.52
  C290                 CHANNEL     0.983     0  04:43      0.69    0.28    0.52
  C291                 CHANNEL     0.983     0  04:43      0.69    0.28    0.52
  C292                 CHANNEL     0.999     0  04:44      0.70    0.28    0.53
  C293                 CHANNEL     0.998     0  04:44      0.70    0.28    0.53
  C294                 CHANNEL     0.998     0  04:44      0.70    0.28    0.53
  C295                 CHANNEL     0.998     0  04:45      0.70    0.28    0.53
  C296                 CHANNEL     0.998     0  04:45      0.70    0.28    0.53
  C297                 CHANNEL     0.998     0  04:45      0.69    0.28    0.53
  C298                 CHANNEL     0.998     0  04:46      0.69    0.28    0.53
  C299                 CHANNEL     0.998     0  04:46      0.68    0.28    0.54
  C300                 CHANNEL     0.998     0  04:46      0.66    0.28    0.55
  C301                 CHANNEL     0.998     0  04:46      1.05    0.21    0.35
  C302                 CHANNEL     0.659     0  04:15      0.54    0.12    0.44
  C303                 CHANNEL     0.459     0  04:35      0.39    0.24    0.65
  C353                 CONDUIT     0.016     0  04:45      1.17    0.01    0.05
  
  
  ***************************
  Flow Classification Summary
  ***************************
  
  -------------------------------------------------------------------------------------
                      Adjusted    ---------- Fraction of Time in Flow Class ---------- 
                       /Actual         Up    Down  Sub   Sup   Up    Down  Norm  Inlet 
  Conduit               Length    Dry  Dry   Dry   Crit  Crit  Crit  Crit  Ltd   Ctrl  
  -------------------------------------------------------------------------------------
  FID1123                 1.00   0.16  0.00  0.00  0.21  0.00  0.00  0.63  0.15  0.00
  FID1139                 1.00   0.15  0.00  0.00  0.00  0.00  0.00  0.85  0.00  0.00
  FID1148                 1.00   0.13  0.00  0.00  0.45  0.00  0.00  0.42  0.00  0.00
  FID1149                 1.00   0.14  0.00  0.00  0.70  0.04  0.00  0.12  0.60  0.00
  FID3364                 1.00   0.13  0.00  0.00  0.84  0.00  0.00  0.03  0.68  0.00
  FID3671                 1.00   0.17  0.00  0.00  0.00  0.00  0.00  0.83  0.00  0.00
  FID3672                 1.00   0.17  0.00  0.00  0.00  0.00  0.00  0.83  0.00  0.00
  FID3762                 1.00   0.02  0.15  0.00  0.82  0.02  0.00  0.00  0.68  0.00
  FID3765                 1.00   0.01  0.15  0.00  0.76  0.08  0.00  0.00  0.68  0.00
  FID4112                 1.00   0.15  0.00  0.00  0.00  0.00  0.00  0.85  0.00  0.00
  FID4186                 1.00   0.21  0.00  0.00  0.25  0.24  0.00  0.30  0.00  0.00
  FID4187                 1.00   0.22  0.00  0.00  0.00  0.00  0.00  0.78  0.00  0.00
  FID4201                 1.00   0.15  0.00  0.00  0.76  0.00  0.00  0.09  0.38  0.00
  FID4202                 1.00   0.16  0.00  0.00  0.00  0.00  0.00  0.84  0.00  0.00
  FID4203                 1.00   0.16  0.84  0.00  0.00  0.00  0.00  0.00  0.00  0.00
  FID4299                 1.00   0.21  0.00  0.00  0.00  0.00  0.00  0.79  0.00  0.00
  FID4372                 1.00   0.08  0.08  0.00  0.84  0.00  0.00  0.00  0.68  0.00
  FID4498                 1.00   0.13  0.00  0.00  0.82  0.00  0.00  0.05  0.66  0.00
  FID4806                 1.00   0.16  0.00  0.00  0.00  0.00  0.00  0.84  0.00  0.00
  FID4807                 1.00   0.23  0.00  0.00  0.00  0.00  0.00  0.77  0.00  0.00
  FID4882                 1.00   0.23  0.55  0.00  0.22  0.00  0.00  0.00  0.54  0.00
  FID4884                 1.00   0.14  0.00  0.00  0.00  0.00  0.00  0.86  0.00  0.00
  FID4914                 1.00   0.13  0.03  0.00  0.84  0.00  0.00  0.00  0.68  0.00
  FID4915                 1.00   0.21  0.00  0.00  0.77  0.00  0.00  0.02  0.57  0.00
  FID4916                 1.00   0.23  0.00  0.00  0.60  0.00  0.00  0.17  0.02  0.00
  FID4917                 1.00   0.24  0.00  0.00  0.50  0.00  0.00  0.26  0.40  0.00
  FID5307                 1.00   0.19  0.00  0.00  0.77  0.00  0.00  0.04  0.37  0.00
  FID5308                 1.00   0.21  0.00  0.00  0.00  0.00  0.00  0.79  0.00  0.00
  FID5312                 1.00   0.22  0.00  0.00  0.00  0.00  0.00  0.78  0.00  0.00
  FID5865                 1.00   0.13  0.00  0.00  0.22  0.07  0.00  0.58  0.22  0.00
  C9                      1.00   0.00  0.00  0.00  1.00  0.00  0.00  0.00  0.00  0.00
  C12                     1.00   0.00  0.00  0.00  1.00  0.00  0.00  0.00  0.00  0.00
  C13                     1.00   0.00  0.00  0.00  1.00  0.00  0.00  0.00  0.00  0.00
  C14                     1.00   0.00  0.00  0.00  1.00  0.00  0.00  0.00  0.00  0.00
  C52                     1.00   0.04  0.12  0.00  0.84  0.00  0.00  0.00  0.68  0.00
  C130                    1.00   0.16  0.00  0.00  0.54  0.00  0.00  0.30  0.00  0.00
  C131                    1.00   0.21  0.00  0.00  0.37  0.02  0.00  0.39  0.30  0.00
  C139                    1.00   0.13  0.60  0.00  0.24  0.00  0.02  0.00  0.50  0.00
  C191                    1.00   0.00  0.00  0.00  1.00  0.00  0.00  0.00  0.00  0.00
  C193                    1.00   0.00  0.00  0.00  1.00  0.00  0.00  0.00  0.00  0.00
  C194                    1.00   0.01  0.00  0.00  0.99  0.00  0.00  0.00  0.00  0.00
  C195                    1.00   0.01  0.00  0.00  0.99  0.00  0.00  0.00  0.00  0.00
  C196                    1.00   0.00  0.00  0.00  1.00  0.00  0.00  0.00  0.00  0.00
  C197                    1.00   0.01  0.00  0.00  0.99  0.00  0.00  0.00  0.00  0.00
  C198                    1.00   0.01  0.00  0.00  0.99  0.00  0.00  0.00  0.00  0.00
  C199                    1.00   0.01  0.00  0.00  0.99  0.00  0.00  0.00  0.00  0.00
  C200                    1.00   0.01  0.00  0.00  0.99  0.00  0.00  0.00  0.00  0.00
  C201                    1.00   0.01  0.00  0.00  0.99  0.00  0.00  0.00  0.00  0.00
  C202                    1.00   0.01  0.00  0.00  0.99  0.00  0.00  0.00  0.00  0.00
  C203                    1.00   0.01  0.00  0.00  0.99  0.00  0.00  0.00  0.00  0.00
  C204                    1.00   0.02  0.00  0.00  0.98  0.00  0.00  0.00  0.00  0.00
  C205                    1.00   0.02  0.00  0.00  0.98  0.00  0.00  0.00  0.00  0.00
  C206                    1.00   0.02  0.00  0.00  0.98  0.00  0.00  0.00  0.00  0.00
  C207                    1.00   0.02  0.00  0.00  0.98  0.00  0.00  0.00  0.00  0.00
  C208                    1.00   0.02  0.00  0.00  0.98  0.00  0.00  0.00  0.00  0.00
  C209                    1.00   0.02  0.00  0.00  0.98  0.00  0.00  0.00  0.00  0.00
  C210                    1.00   0.02  0.00  0.00  0.98  0.00  0.00  0.00  0.00  0.00
  C211                    1.00   0.03  0.00  0.00  0.97  0.00  0.00  0.00  0.00  0.00
  C212                    1.00   0.03  0.00  0.00  0.97  0.00  0.00  0.00  0.00  0.00
  C213                    1.00   0.03  0.00  0.00  0.97  0.00  0.00  0.00  0.00  0.00
  C214                    1.00   0.03  0.00  0.00  0.97  0.00  0.00  0.00  0.00  0.00
  C215                    1.00   0.03  0.00  0.00  0.97  0.00  0.00  0.00  0.67  0.00
  C216                    1.00   0.03  0.00  0.00  0.97  0.00  0.00  0.00  0.00  0.00
  C217                    1.00   0.03  0.00  0.00  0.97  0.00  0.00  0.00  0.00  0.00
  C218                    1.00   0.03  0.00  0.00  0.97  0.00  0.00  0.00  0.00  0.00
  C219                    1.00   0.04  0.00  0.00  0.96  0.00  0.00  0.00  0.00  0.00
  C220                    1.00   0.04  0.00  0.00  0.96  0.00  0.00  0.00  0.00  0.00
  C221                    1.00   0.04  0.00  0.00  0.96  0.00  0.00  0.00  0.00  0.00
  C222                    1.00   0.04  0.00  0.00  0.96  0.00  0.00  0.00  0.00  0.00
  C223                    1.00   0.05  0.00  0.00  0.95  0.00  0.00  0.00  0.01  0.00
  C224                    1.00   0.05  0.00  0.00  0.95  0.00  0.00  0.00  0.00  0.00
  C225                    1.00   0.05  0.00  0.00  0.95  0.00  0.00  0.00  0.00  0.00
  C226                    1.00   0.05  0.00  0.00  0.95  0.00  0.00  0.00  0.00  0.00
  C227                    1.00   0.05  0.00  0.00  0.95  0.00  0.00  0.00  0.00  0.00
  C228                    1.00   0.06  0.00  0.00  0.94  0.00  0.00  0.00  0.00  0.00
  C229                    1.00   0.06  0.00  0.00  0.94  0.00  0.00  0.00  0.00  0.00
  C230                    1.00   0.06  0.00  0.00  0.94  0.00  0.00  0.00  0.00  0.00
  C231                    1.00   0.06  0.00  0.00  0.94  0.00  0.00  0.00  0.00  0.00
  C232                    1.00   0.07  0.00  0.00  0.93  0.00  0.00  0.00  0.00  0.00
  C233                    1.00   0.07  0.00  0.00  0.93  0.00  0.00  0.00  0.00  0.00
  C234                    1.00   0.07  0.00  0.00  0.93  0.00  0.00  0.00  0.00  0.00
  C235                    1.00   0.07  0.00  0.00  0.93  0.00  0.00  0.00  0.00  0.00
  C236                    1.00   0.08  0.00  0.00  0.92  0.00  0.00  0.00  0.00  0.00
  C237                    1.00   0.08  0.00  0.00  0.92  0.00  0.00  0.00  0.00  0.00
  C238                    1.00   0.08  0.00  0.00  0.92  0.00  0.00  0.00  0.00  0.00
  C239                    1.00   0.08  0.00  0.00  0.92  0.00  0.00  0.00  0.00  0.00
  C240                    1.00   0.08  0.00  0.00  0.92  0.00  0.00  0.00  0.00  0.00
  C241                    1.00   0.08  0.00  0.00  0.92  0.00  0.00  0.00  0.00  0.00
  C242                    1.00   0.08  0.00  0.00  0.92  0.00  0.00  0.00  0.00  0.00
  C243                    1.00   0.08  0.00  0.00  0.92  0.00  0.00  0.00  0.00  0.00
  C244                    1.00   0.09  0.00  0.00  0.91  0.00  0.00  0.00  0.00  0.00
  C245                    1.00   0.09  0.00  0.00  0.91  0.00  0.00  0.00  0.00  0.00
  C246                    1.00   0.10  0.00  0.00  0.90  0.00  0.00  0.00  0.16  0.00
  C247                    1.00   0.11  0.00  0.00  0.89  0.00  0.00  0.00  0.00  0.00
  C248                    1.00   0.12  0.00  0.00  0.88  0.00  0.00  0.00  0.00  0.00
  C249                    1.00   0.12  0.01  0.00  0.87  0.00  0.00  0.00  0.01  0.00
  C250                    1.00   0.12  0.00  0.00  0.88  0.00  0.00  0.00  0.00  0.00
  C251                    1.00   0.13  0.00  0.00  0.87  0.00  0.00  0.00  0.02  0.00
  C252                    1.00   0.13  0.00  0.00  0.87  0.00  0.00  0.00  0.00  0.00
  C253                    1.00   0.14  0.00  0.00  0.86  0.00  0.00  0.00  0.00  0.00
  C254                    1.00   0.16  0.00  0.00  0.84  0.00  0.00  0.00  0.00  0.00
  C255                    1.00   0.13  0.03  0.00  0.84  0.00  0.00  0.00  0.01  0.00
  C256                    1.00   0.12  0.01  0.00  0.86  0.00  0.00  0.00  0.01  0.00
  C257                    1.00   0.12  0.00  0.00  0.88  0.00  0.00  0.00  0.00  0.00
  C258                    1.00   0.12  0.01  0.00  0.86  0.00  0.00  0.00  0.01  0.00
  C259                    1.00   0.12  0.00  0.00  0.88  0.00  0.00  0.00  0.02  0.00
  C260                    1.00   0.14  0.02  0.00  0.85  0.00  0.00  0.00  0.00  0.00
  C261                    1.00   0.14  0.00  0.00  0.86  0.01  0.00  0.00  0.00  0.00
  C262                    1.00   0.14  0.00  0.00  0.86  0.00  0.00  0.00  0.00  0.00
  C263                    1.00   0.13  0.00  0.00  0.87  0.00  0.00  0.00  0.00  0.00
  C264                    1.00   0.13  0.00  0.00  0.87  0.00  0.00  0.00  0.01  0.00
  C265                    1.00   0.13  0.01  0.00  0.87  0.00  0.00  0.00  0.00  0.00
  C266                    1.00   0.13  0.00  0.00  0.87  0.00  0.00  0.00  0.00  0.00
  C267                    1.00   0.17  0.02  0.00  0.81  0.00  0.00  0.00  0.00  0.00
  C268                    1.00   0.16  0.01  0.00  0.83  0.00  0.00  0.00  0.03  0.00
  C269                    1.00   0.16  0.00  0.00  0.84  0.00  0.00  0.00  0.00  0.00
  C270                    1.00   0.13  0.05  0.00  0.82  0.00  0.00  0.00  0.03  0.00
  C271                    1.00   0.13  0.00  0.00  0.87  0.00  0.00  0.00  0.02  0.00
  C272                    1.00   0.14  0.01  0.00  0.85  0.00  0.00  0.00  0.00  0.00
  C273                    1.00   0.14  0.00  0.00  0.86  0.00  0.00  0.00  0.01  0.00
  C274                    1.00   0.14  0.00  0.00  0.86  0.00  0.00  0.00  0.00  0.00
  C275                    1.00   0.17  0.00  0.00  0.83  0.00  0.00  0.00  0.00  0.00
  C276                    1.00   0.20  0.00  0.00  0.80  0.00  0.00  0.00  0.00  0.00
  C277                    1.00   0.22  0.00  0.00  0.78  0.00  0.00  0.00  0.00  0.00
  C278                    1.00   0.23  0.00  0.00  0.77  0.00  0.00  0.00  0.00  0.00
  C279                    1.00   0.21  0.01  0.00  0.77  0.00  0.00  0.00  0.00  0.00
  C280                    1.00   0.15  0.06  0.00  0.79  0.00  0.00  0.00  0.00  0.00
  C281                    1.00   0.15  0.00  0.00  0.85  0.00  0.00  0.00  0.03  0.00
  C282                    1.00   0.16  0.00  0.00  0.84  0.00  0.00  0.00  0.03  0.00
  C283                    1.00   0.17  0.00  0.00  0.83  0.00  0.00  0.00  0.01  0.00
  C284                    1.00   0.18  0.00  0.00  0.82  0.00  0.00  0.00  0.00  0.00
  C285                    1.00   0.20  0.00  0.00  0.80  0.00  0.00  0.00  0.00  0.00
  C286                    1.00   0.22  0.00  0.00  0.78  0.00  0.00  0.00  0.00  0.00
  C287                    1.00   0.15  0.09  0.00  0.76  0.00  0.00  0.00  0.00  0.00
  C288                    1.00   0.15  0.00  0.00  0.85  0.00  0.00  0.00  0.00  0.00
  C289                    1.00   0.25  0.00  0.00  0.75  0.00  0.00  0.00  0.00  0.00
  C290                    1.00   0.14  0.10  0.00  0.75  0.00  0.00  0.00  0.00  0.00
  C291                    1.00   0.14  0.00  0.00  0.86  0.00  0.00  0.00  0.07  0.00
  C292                    1.00   0.17  0.00  0.00  0.83  0.00  0.00  0.00  0.02  0.00
  C293                    1.00   0.17  0.00  0.00  0.83  0.00  0.00  0.00  0.01  0.00
  C294                    1.00   0.19  0.00  0.00  0.81  0.00  0.00  0.00  0.01  0.00
  C295                    1.00   0.21  0.00  0.00  0.79  0.00  0.00  0.00  0.00  0.00
  C296                    1.00   0.16  0.07  0.00  0.77  0.00  0.00  0.00  0.00  0.00
  C297                    1.00   0.16  0.00  0.00  0.84  0.00  0.00  0.00  0.00  0.00
  C298                    1.00   0.25  0.00  0.00  0.75  0.00  0.00  0.00  0.00  0.00
  C299                    1.00   0.26  0.00  0.00  0.74  0.00  0.00  0.00  0.00  0.00
  C300                    1.00   0.26  0.00  0.00  0.74  0.00  0.00  0.00  0.00  0.00
  C301                    1.00   0.26  0.00  0.00  0.74  0.00  0.00  0.00  0.00  0.00
  C302                    1.00   0.00  0.00  0.00  1.00  0.00  0.00  0.00  0.00  0.00
  C303                    1.00   0.00  0.00  0.00  1.00  0.00  0.00  0.00  0.00  0.00
  C353                    1.00   0.17  0.00  0.00  0.00  0.00  0.00  0.83  0.00  0.00
  
  
  *************************
  Conduit Surcharge Summary
  *************************
  
  ----------------------------------------------------------------------------
                                                           Hours        Hours 
                         --------- Hours Full --------   Above Full   Capacity
  Conduit                Both Ends  Upstream  Dnstream   Normal Flow   Limited
  ----------------------------------------------------------------------------
  FID4498                     0.01      0.01      0.09      0.01         0.01
  FID4882                     0.01      0.01      1.67      0.01         0.01
  FID4914                     0.01      0.01      2.21      0.01         0.01
  C199                        0.01      0.01      0.01      8.53         0.01
  C200                        0.01      0.01      0.01      8.47         0.01
  
  
  ***************************
  Link Pollutant Load Summary
  ***************************
  
  --------------------------------------------------------------
                                 TSS            TP           TDP
  Link                            kg            kg            kg
  --------------------------------------------------------------
  FID1123                     27.506         0.032         0.021
  FID1139                    230.549         0.137         0.104
  FID1148                    403.625         0.274         0.192
  FID1149                    403.471         0.274         0.192
  FID3364                    467.190         0.306         0.216
  FID3671                     19.225         0.014         0.011
  FID3672                    132.330         0.061         0.052
  FID3762                    264.863         0.165         0.112
  FID3765                    458.451         0.275         0.209
  FID4112                    188.971         0.106         0.084
  FID4186                     25.178         0.023         0.012
  FID4187                     18.465         0.023         0.012
  FID4201                    118.906         0.067         0.052
  FID4202                    114.635         0.066         0.051
  FID4203                      0.000         0.000         0.000
  FID4299                     15.159         0.009         0.007
  FID4372                    744.975         0.330         0.190
  FID4498                    134.337         0.026         0.023
  FID4806                    828.955         1.285         1.055
  FID4807                      0.000         0.000         0.001
  FID4882                      0.230         0.000         0.000
  FID4884                    118.843         0.122         0.076
  FID4914                     62.578         0.028         0.019
  FID4915                      7.430         0.004         0.003
  FID4916                      0.215         0.002         0.002
  FID4917                      0.033         0.001         0.001
  FID5307                     49.012         0.029         0.022
  FID5308                     19.327         0.009         0.007
  FID5312                     43.719         0.028         0.021
  FID5865                    276.831         0.205         0.706
  C9                         182.782         1.082         1.298
  C12                        181.154         1.065         1.277
  C13                        248.890         1.073         1.285
  C14                        163.818         0.706         0.848
  C52                        646.812         0.331         0.256
  C130                        50.416         0.036         0.025
  C131                        49.860         0.037         0.025
  C139                         0.000         0.000         0.000
  C191                       314.893         0.773         0.902
  C193                       313.830         0.754         0.876
  C194                       312.188         0.748         0.872
  C195                       311.829         0.746         0.870
  C196                       296.016         0.763         0.895
  C197                       770.142         1.018         1.075
  C198                      1034.729         1.180         1.184
  C199                      1035.266         1.177         1.179
  C200                      1034.493         1.174         1.175
  C201                      1035.882         1.170         1.168
  C202                      1053.260         1.167         1.167
  C203                      1053.424         1.164         1.162
  C204                      1051.210         1.162         1.161
  C205                      1429.055         1.383         1.329
  C206                      1617.290         1.486         1.410
  C207                      1621.228         1.484         1.404
  C208                      1638.280         1.497         1.401
  C209                      1632.574         1.492         1.398
  C210                      1633.058         1.491         1.396
  C211                      1632.094         1.489         1.394
  C212                      2143.857         1.793         1.626
  C213                      2155.859         1.795         1.627
  C214                      2157.230         1.794         1.625
  C215                      2236.492         1.841         1.618
  C216                      2196.734         1.822         1.610
  C217                      2312.314         1.886         1.658
  C218                      2957.278         2.214         1.911
  C219                      2962.191         2.212         1.906
  C220                      2964.603         2.208         1.900
  C221                      3003.446         2.215         1.901
  C222                      3300.858         2.360         2.019
  C223                      3685.940         2.586         2.184
  C224                      3707.504         2.587         2.177
  C225                      3721.359         2.583         2.172
  C226                      3722.329         2.580         2.166
  C227                      3808.200         2.611         2.156
  C228                      3785.746         2.604         2.155
  C229                      4147.954         2.793         2.285
  C230                      4160.482         2.800         2.290
  C231                      4187.290         2.801         2.283
  C232                      4173.445         2.793         2.275
  C233                      4230.717         2.794         2.262
  C234                      4199.426         2.789         2.260
  C235                      4242.815         2.806         2.276
  C236                      4986.299         3.136         2.465
  C237                      5001.910         3.135         2.460
  C238                      5491.983         3.264         2.580
  C239                      5481.839         3.260         2.576
  C240                      5474.496         3.258         2.575
  C241                      5493.449         3.266         2.582
  C242                      5542.398         3.294         2.600
  C243                      5619.112         3.310         2.592
  C244                      5601.627         3.330         2.603
  C245                      5603.133         3.328         2.600
  C246                      6501.440         4.634         3.645
  C247                      6521.486         4.632         3.645
  C248                      6536.446         4.635         3.639
  C249                      6517.081         4.622         3.631
  C250                      6535.987         4.627         3.636
  C251                      6537.876         4.626         3.634
  C252                      7003.181         4.930         3.848
  C253                      7014.740         4.934         3.846
  C254                      7023.141         4.935         3.842
  C255                      7021.629         4.930         3.835
  C256                      7149.253         4.950         3.852
  C257                      7157.526         4.952         3.853
  C258                      7158.160         4.951         3.851
  C259                      7172.545         4.954         3.849
  C260                      7159.058         4.947         3.844
  C261                      7281.101         5.069         3.918
  C262                      7299.893         5.072         3.911
  C263                      7288.666         5.062         3.905
  C264                      7295.243         5.060         3.910
  C265                      7552.337         5.260         4.597
  C266                      7560.396         5.261         4.599
  C267                      7557.947         5.259         4.594
  C268                      7569.035         5.259         4.595
  C269                      7579.663         5.285         4.604
  C270                      7591.596         5.286         4.608
  C271                      7582.385         5.283         4.601
  C272                      7580.832         5.283         4.599
  C273                      8015.692         5.559         4.796
  C274                      8013.994         5.555         4.792
  C275                      8012.014         5.551         4.788
  C276                      8012.126         5.548         4.784
  C277                      8006.233         5.546         4.781
  C278                      8006.066         5.544         4.779
  C279                      8010.439         5.544         4.778
  C280                      8002.974         5.542         4.774
  C281                      8227.965         5.677         4.877
  C282                      8237.645         5.677         4.877
  C283                      8287.791         5.712         4.901
  C284                      8292.634         5.711         4.900
  C285                      8300.776         5.710         4.899
  C286                      8307.040         5.709         4.897
  C287                      8311.342         5.707         4.895
  C288                      8307.012         5.705         4.892
  C289                      8307.116         5.704         4.890
  C290                      8310.565         5.703         4.889
  C291                      8290.319         5.701         4.884
  C292                      8528.916         5.825         4.981
  C293                      8518.452         5.822         4.978
  C294                      8523.570         5.822         4.977
  C295                      8501.073         5.818         4.973
  C296                      8507.054         5.818         4.972
  C297                      8523.175         5.817         4.973
  C298                      8525.887         5.816         4.971
  C299                      8508.591         5.814         4.968
  C300                      8531.301         5.814         4.968
  C301                      8493.617         5.811         4.963
  C302                       182.192         1.077         1.293
  C303                       314.648         0.765         0.891
  C353                       208.090         0.122         0.094
  

  Analysis begun on:  Tue Oct 10 20:19:29 2017
  Analysis ended on:  Tue Oct 10 20:20:06 2017
  Total elapsed time: 00:00:37