
  EPA STORM WATER MANAGEMENT MODEL - VERSION 5.1 (Build 5.1.010)
  --------------------------------------------------------------

  WARNING 04: minimum elevation drop used for Conduit C199
  WARNING 04: minimum elevation drop used for Conduit C200
  WARNING 02: maximum depth increased for Node FID1955
  WARNING 02: maximum depth increased for Node FID1960
  WARNING 02: maximum depth increased for Node FID1965
  WARNING 02: maximum depth increased for Node FID1968
  WARNING 02: maximum depth increased for Node FID2244
  WARNING 02: maximum depth increased for Node FID2442
  WARNING 02: maximum depth increased for Node FID2446
  WARNING 02: maximum depth increased for Node FID5504
  WARNING 02: maximum depth increased for Node FID5527
  WARNING 02: maximum depth increased for Node AFID6926
  WARNING 02: maximum depth increased for Node AFID7376
  
  *********************************************************
  NOTE: The summary statistics displayed in this report are
  based on results found at every computational time step,  
  not just on results from each reporting time step.
  *********************************************************
  
  ****************
  Analysis Options
  ****************
  Flow Units ............... CMS
  Process Models:
    Rainfall/Runoff ........ YES
    RDII ................... NO
    Snowmelt ............... NO
    Groundwater ............ NO
    Flow Routing ........... YES
    Ponding Allowed ........ YES
    Water Quality .......... YES
  Infiltration Method ...... GREEN_AMPT
  Flow Routing Method ...... DYNWAVE
  Starting Date ............ MAY-06-2016 15:00:00
  Ending Date .............. MAY-07-2016 00:00:00
  Antecedent Dry Days ...... 0.0
  Report Time Step ......... 00:01:00
  Wet Time Step ............ 00:01:00
  Dry Time Step ............ 01:00:00
  Routing Time Step ........ 5.00 sec
  Variable Time Step ....... YES
  Maximum Trials ........... 8
  Number of Threads ........ 3
  Head Tolerance ........... 0.001500 m
  
  
  **************************        Volume         Depth
  Runoff Quantity Continuity     hectare-m            mm
  **************************     ---------       -------
  Total Precipitation ......         2.583         6.709
  Evaporation Loss .........         0.000         0.000
  Infiltration Loss ........         1.232         3.201
  Surface Runoff ...........         1.004         2.608
  Final Storage ............         0.347         0.900
  Continuity Error (%) .....         0.002
  
  
  **************************           TSS            TP           TDP
  Runoff Quality Continuity             kg            kg            kg
  **************************    ----------    ----------    ----------
  Initial Buildup ..........         0.000         0.000         0.000
  Surface Buildup ..........     14751.698        11.024        11.968
  Wet Deposition ...........         0.000         0.000         0.000
  Sweeping Removal .........         0.000         0.000         0.000
  Infiltration Loss ........         0.000         0.000         0.000
  BMP Removal ..............         0.762         0.000         0.001
  Surface Runoff ...........      7622.158         4.783         5.938
  Remaining Buildup ........      7128.777         6.240         6.030
  Continuity Error (%) .....         0.000         0.000         0.000
  
  
  **************************        Volume        Volume
  Flow Routing Continuity        hectare-m      10^6 ltr
  **************************     ---------     ---------
  Dry Weather Inflow .......         0.000         0.000
  Wet Weather Inflow .......         1.004        10.041
  Groundwater Inflow .......         0.000         0.000
  RDII Inflow ..............         0.000         0.000
  External Inflow ..........         1.384        13.843
  External Outflow .........         1.744        17.438
  Flooding Loss ............         0.000         0.000
  Evaporation Loss .........         0.000         0.000
  Exfiltration Loss ........         0.000         0.000
  Initial Stored Volume ....         0.000         0.000
  Final Stored Volume ......         0.651         6.514
  Continuity Error (%) .....        -0.287
  
  
  **************************           TSS            TP           TDP
  Quality Routing Continuity            kg            kg            kg
  **************************    ----------    ----------    ----------
  Dry Weather Inflow .......         0.000         0.000         0.000
  Wet Weather Inflow .......      7296.635         4.770         5.918
  Groundwater Inflow .......         0.000         0.000         0.000
  RDII Inflow ..............         0.000         0.000         0.000
  External Inflow ..........       137.985         1.039         1.284
  External Outflow .........      6973.023         5.150         6.391
  Flooding Loss ............         0.000         0.000         0.000
  Exfiltration Loss ........         0.000         0.000         0.000
  Mass Reacted .............         0.000         0.000         0.000
  Initial Stored Mass ......         0.000         0.000         0.000
  Final Stored Mass ........        47.868         0.420         0.612
  Continuity Error (%) .....         5.565         4.110         2.765
  
  
  *************************
  Highest Continuity Errors
  *************************
  Node J72 (1.62%)
  Node FID2824 (1.58%)
  Node J19 (1.52%)
  Node FID2449 (1.47%)
  Node J81 (1.45%)
  
  
  ***************************
  Time-Step Critical Elements
  ***************************
  Link C241 (90.87%)
  Link C14 (8.23%)
  
  
  ********************************
  Highest Flow Instability Indexes
  ********************************
  All links are stable.
  
  
  *************************
  Routing Time Step Summary
  *************************
  Minimum Time Step           :     0.62 sec
  Average Time Step           :     0.93 sec
  Maximum Time Step           :     5.00 sec
  Percent in Steady State     :     0.00
  Average Iterations per Step :     2.00
  Percent Not Converging      :     0.00
  
  
  ***************************
  Subcatchment Runoff Summary
  ***************************
  
  --------------------------------------------------------------------------------------------------------
                            Total      Total      Total      Total      Total       Total     Peak  Runoff
                           Precip      Runon       Evap      Infil     Runoff      Runoff   Runoff   Coeff
  Subcatchment                 mm         mm         mm         mm         mm    10^6 ltr      CMS
  --------------------------------------------------------------------------------------------------------
  S0                         5.84       0.00       0.00       4.98       0.63        0.00     0.00   0.108
  S1                         5.84       0.00       0.00       2.31       2.58        0.25     0.08   0.442
  S2                         6.35       0.00       0.00       1.56       3.59        0.62     0.20   0.566
  S3                         5.84       0.00       0.00       3.65       1.62        0.05     0.04   0.277
  S4                         5.84       0.00       0.00       2.53       2.43        0.24     0.16   0.417
  S6                         6.35       0.00       0.00      -0.09       4.34        0.08     0.03   0.683
  S7                         6.35       0.00       0.00       2.57       3.03        1.19     0.35   0.478
  S8                         6.35       0.00       0.00      -0.09       4.35        0.00     0.00   0.685
  S9                         6.35       0.00       0.00       1.37       3.76        0.00     0.00   0.593
  S10                        6.35       0.00       0.00       1.49       3.67        0.01     0.00   0.578
  S11                        6.35       0.00       0.00       4.88       1.11        0.00     0.00   0.175
  S12                        6.35       0.00       0.00       1.74       3.48        0.00     0.00   0.549
  S13                        6.35       0.00       0.00       2.01       3.26        0.25     0.08   0.513
  S14                        6.35       0.00       0.00       4.28       1.56        0.01     0.00   0.246
  S16                        6.35       0.00       0.00       2.05       2.75        0.15     0.05   0.434
  S17                        6.35       0.00       0.00       1.68       3.50        0.67     0.21   0.552
  S18                        6.35       0.00       0.00       0.96       4.08        0.00     0.00   0.643
  S19                        6.35       0.00       0.00       3.21       2.36        0.05     0.02   0.372
  S20                        6.35       0.00       0.00       1.85       3.40        0.02     0.01   0.535
  S21                        6.35       0.00       0.00       4.73       1.43        0.77     0.18   0.225
  S22                        6.35       0.00       0.00       1.29       3.82        0.01     0.00   0.601
  S23                        6.35       0.00       0.00       3.61       2.07        0.03     0.01   0.326
  S24                        6.35       0.00       0.00       3.38       2.24        0.04     0.01   0.353
  S25                        6.35       0.00       0.00       2.09       3.21        0.04     0.01   0.505
  S27                        6.35       0.00       0.00       2.47       2.93        0.02     0.01   0.462
  S28                        5.84       0.00       0.00       5.83       0.01        0.00     0.00   0.001
  S29                        5.84       0.00       0.00       5.80       0.04        0.00     0.00   0.006
  S30                        6.35       0.00       0.00       6.33       0.02        0.00     0.00   0.003
  S31                        6.35       0.00       0.00       6.34       0.01        0.00     0.00   0.001
  S32                        6.35       0.00       0.00       4.53       1.38        0.01     0.00   0.217
  S33                        6.35       0.00       0.00       1.10       3.96        0.05     0.02   0.623
  S34                        6.35       0.00       0.00       3.19       1.10        0.39     0.09   0.173
  S35                        6.35       0.00       0.00       3.36       2.26        0.01     0.00   0.356
  S36                        6.35       0.00       0.00       4.94       1.07        0.01     0.01   0.169
  S37                        6.35       0.00       0.00       1.45       3.70        0.02     0.01   0.582
  S39                        6.35       0.00       0.00       3.52       2.13        0.32     0.10   0.336
  S40                        6.35       0.00       0.00       4.25       1.58        0.03     0.01   0.249
  S41                        6.35       0.00       0.00       1.83       3.41        0.46     0.15   0.536
  S42                        6.35       0.00       0.00       2.26       3.08        0.31     0.10   0.485
  S43                        6.35       0.00       0.00       4.60       1.32        0.03     0.01   0.208
  S44                        6.35       0.00       0.00       2.33       3.02        0.68     0.21   0.475
  S45                        8.13       0.00       0.00       4.24       3.18        0.00     0.00   0.392
  S47                        8.13       0.00       0.00       3.07       4.11        0.18     0.14   0.506
  S48                        8.13       0.00       0.00       3.78       3.56        0.01     0.01   0.438
  S49                        8.13       0.00       0.00       3.24       3.95        0.74     0.44   0.486
  S51                        8.13       0.00       0.00       6.88       1.03        0.01     0.01   0.126
  S52                        8.13       0.00       0.00       3.58       3.69        0.25     0.20   0.454
  S53                        8.13       0.00       0.00       3.42       3.80        0.53     0.34   0.468
  S54                        8.13       0.00       0.00       4.57       2.87        0.27     0.08   0.353
  S55                        8.13       0.00       0.00       3.60       3.65        0.59     0.17   0.449
  S56                        8.13       0.00       0.00       5.69       1.98        0.00     0.00   0.243
  S57                        8.13       0.00       0.00       3.02       4.12        0.04     0.01   0.507
  S58                        8.13       0.00       0.00       3.96       3.36        0.14     0.04   0.413
  S59                        8.13       0.00       0.00       6.90       0.99        0.03     0.01   0.122
  S60                        8.13       0.00       0.00       5.58       2.06        0.05     0.02   0.253
  S61                        8.13       0.00       0.00       7.07       0.86        0.01     0.00   0.105
  S62                        8.13       0.00       0.00       6.53       1.30        0.03     0.03   0.160
  S63                        6.35       0.00       0.00       5.24       0.84        0.01     0.01   0.132
  S64                        6.35       0.00       0.00       2.55       2.87        0.04     0.02   0.453
  S65                        6.35       0.00       0.00       4.03       1.74        0.29     0.09   0.274
  
  
  ****************************
  Subcatchment Washoff Summary
  ****************************
  
  --------------------------------------------------------------
                                 TSS            TP           TDP
  Subcatchment                    kg            kg            kg
  --------------------------------------------------------------
  S0                           0.479         0.000         0.001
  S1                         153.657         0.053         0.086
  S2                         300.674         0.143         0.174
  S3                          34.993         0.019         0.032
  S4                         167.553         0.066         0.083
  S6                          18.766         0.008         0.016
  S7                         372.755         1.227         0.889
  S8                           0.811         0.000         0.000
  S9                           0.930         0.000         0.000
  S10                          9.349         0.004         0.002
  S11                          0.943         0.000         0.000
  S12                          0.544         0.000         0.000
  S13                         81.818         0.037         0.066
  S14                         15.130         0.011         0.014
  S16                        356.632         0.047         0.062
  S17                        351.309         0.173         0.215
  S18                          0.953         0.000         0.000
  S19                         54.599         0.033         0.045
  S20                         16.549         0.009         0.007
  S21                       1268.308         0.418         1.258
  S22                          6.098         0.003         0.001
  S23                         28.318         0.028         0.052
  S24                         35.662         0.016         0.019
  S25                         24.475         0.020         0.036
  S27                         17.269         0.010         0.009
  S28                          0.000         0.000         0.000
  S29                          0.000         0.000         0.000
  S30                          0.000         0.000         0.000
  S31                          0.000         0.000         0.000
  S32                          7.925         0.006         0.011
  S33                         33.199         0.015         0.011
  S34                        652.249         0.477         0.341
  S35                         10.414         0.006         0.006
  S36                         21.667         0.016         0.029
  S37                         15.468         0.009         0.011
  S39                        293.995         0.181         0.270
  S40                         43.216         0.037         0.065
  S41                        271.939         0.124         0.126
  S42                        238.747         0.108         0.113
  S43                         35.278         0.029         0.055
  S44                        509.717         0.251         0.294
  S45                          1.424         0.001         0.001
  S47                         91.834         0.050         0.054
  S48                          9.249         0.005         0.003
  S49                        388.923         0.208         0.256
  S51                         15.885         0.015         0.027
  S52                        140.525         0.068         0.074
  S53                        261.843         0.114         0.117
  S54                        209.667         0.130         0.178
  S55                        356.257         0.198         0.260
  S56                          0.074         0.000         0.000
  S57                         17.621         0.011         0.019
  S58                         95.141         0.043         0.039
  S59                         55.985         0.025         0.026
  S60                         45.032         0.044         0.081
  S61                         20.340         0.011         0.017
  S62                         39.193         0.039         0.075
  S63                         20.376         0.015         0.032
  S64                         22.207         0.023         0.044
  S65                        378.194         0.196         0.238
  --------------------------------------------------------------
  System                    7622.158         4.783         5.938
  
  
  ******************
  Node Depth Summary
  ******************
  
  ---------------------------------------------------------------------------------
                                 Average  Maximum  Maximum  Time of Max    Reported
                                   Depth    Depth      HGL   Occurrence   Max Depth
  Node                 Type       Meters   Meters   Meters  days hr:min      Meters
  ---------------------------------------------------------------------------------
  FID1936              JUNCTION     0.16     0.40  1376.70     0  04:05        0.12
  FID1955              JUNCTION     0.17     0.34  1376.26     0  04:15        0.10
  FID1960              JUNCTION     0.16     0.28  1376.14     0  04:15        0.08
  FID1965              JUNCTION     0.15     0.26  1376.56     0  04:15        0.08
  FID1968              JUNCTION     0.14     0.21  1376.61     0  04:15        0.06
  FID2239              JUNCTION     0.15     0.29  1374.80     0  04:05        0.09
  FID2241              JUNCTION     0.13     0.20  1373.33     0  04:05        0.06
  FID2242              JUNCTION     0.14     0.22  1374.26     0  04:05        0.07
  FID2244              JUNCTION     0.13     0.19  1374.55     0  03:30        0.06
  FID2440              JUNCTION     0.46     0.74  1374.98     0  04:22        0.22
  FID2442              JUNCTION     0.00     0.00  1375.27     0  00:00        0.00
  FID2446              JUNCTION     0.17     0.56  1376.36     0  04:05        0.17
  FID2447              JUNCTION     0.16     0.46  1376.16     0  04:05        0.14
  FID2455              JUNCTION     0.39     0.79  1374.78     0  04:30        0.24
  FID2711              JUNCTION     0.13     0.24  1370.42     0  04:05        0.07
  FID2719              JUNCTION     0.17     0.51  1370.61     0  04:05        0.15
  FID2720              JUNCTION     0.17     0.38  1370.58     0  04:05        0.12
  FID2824              JUNCTION     0.13     0.18  1371.46     0  04:10        0.06
  FID2827              JUNCTION     0.14     0.23  1371.53     0  04:10        0.07
  FID2828              JUNCTION     0.14     0.23  1371.55     0  04:10        0.07
  FID2832              JUNCTION     0.17     0.31  1370.91     0  04:10        0.09
  FID2833              JUNCTION     0.22     0.48  1371.10     0  04:10        0.15
  FID2839              JUNCTION     0.19     0.35  1371.55     0  04:10        0.11
  FID2873              JUNCTION     0.16     0.29  1370.99     0  04:10        0.09
  FID2964              JUNCTION     0.20     0.37  1371.15     0  04:36        0.11
  FID2965              JUNCTION     0.50     0.89  1371.15     0  04:38        0.27
  FID4584              JUNCTION     0.14     0.30  1371.64     0  04:10        0.09
  FID5068              JUNCTION     0.13     0.20  1375.58     0  03:30        0.06
  FID5072              JUNCTION     0.56     0.86  1374.15     0  04:34        0.26
  FID5140              JUNCTION     0.16     0.24  1373.46     0  04:05        0.07
  FID5435              JUNCTION     0.16     0.25  1373.00     0  04:05        0.08
  FID5437              JUNCTION     0.13     0.18  1373.13     0  03:30        0.05
  FID5503              JUNCTION     0.12     0.16  1371.49     0  04:10        0.05
  FID5504              JUNCTION     0.16     0.25  1371.61     0  04:10        0.08
  FID5527              JUNCTION     0.15     0.21  1372.71     0  04:10        0.07
  FID5568              JUNCTION     0.54     0.86  1373.25     0  04:36        0.26
  FID5784              JUNCTION     0.54     0.86  1372.86     0  04:35        0.26
  FID5785              JUNCTION     0.14     0.24  1374.67     0  04:05        0.07
  AFID6926             JUNCTION     0.16     0.26  1370.06     0  04:15        0.08
  AFID7360             JUNCTION     0.55     0.96  1371.09     0  04:37        0.29
  AFID7363             JUNCTION     0.54     0.95  1371.12     0  04:38        0.29
  AFID7376             JUNCTION     0.20     0.41  1371.64     0  04:10        0.12
  AFID7377             JUNCTION     0.45     0.76  1371.44     0  04:37        0.23
  AFID7705             JUNCTION     0.55     0.68  1375.64     0  04:15        0.21
  AFID7706             JUNCTION     0.60     0.73  1375.65     0  04:15        0.22
  AFID7792             JUNCTION     0.18     0.39  1375.19     0  04:05        0.12
  AFID8223             JUNCTION     0.55     0.86  1372.87     0  04:35        0.26
  J1                   JUNCTION     0.78     0.82  1375.81     0  04:18        0.25
  FID4901              JUNCTION     0.51     0.61  1375.69     0  04:16        0.19
  J9                   JUNCTION     0.67     0.71  1375.80     0  04:18        0.22
  J11                  JUNCTION     0.51     0.56  1375.77     0  04:18        0.17
  J12                  JUNCTION     0.51     0.59  1375.71     0  04:17        0.18
  J13                  JUNCTION     0.51     0.61  1375.69     0  04:16        0.19
  FID4902              JUNCTION     0.52     0.63  1375.68     0  04:16        0.19
  J14                  JUNCTION     0.43     0.60  1375.51     0  04:06        0.18
  J15                  JUNCTION     0.40     0.64  1375.30     0  04:08        0.19
  J16                  JUNCTION     0.41     0.64  1375.29     0  04:08        0.20
  FID2449              JUNCTION     0.46     0.74  1375.06     0  04:23        0.23
  J17                  JUNCTION     0.38     0.80  1374.77     0  04:30        0.24
  J19                  JUNCTION     0.53     1.00  1374.55     0  04:34        0.31
  FID5069              JUNCTION     0.59     0.89  1374.14     0  04:34        0.27
  FID5139              JUNCTION     0.55     0.87  1373.22     0  04:35        0.26
  J24                  JUNCTION     0.55     0.87  1373.23     0  04:36        0.26
  FID4984              JUNCTION     0.56     0.88  1372.84     0  04:36        0.27
  FID2669              JUNCTION     0.41     0.75  1369.19     0  04:38        0.23
  FID2712              JUNCTION     0.43     0.80  1369.99     0  04:36        0.24
  FID2718              JUNCTION     0.44     0.81  1370.05     0  04:35        0.25
  FID2838              JUNCTION     0.63     1.03  1370.97     0  04:33        0.31
  FID2825              JUNCTION     0.68     1.11  1371.01     0  04:35        0.34
  FID2823              JUNCTION     0.71     1.16  1371.04     0  04:36        0.35
  FID5505              JUNCTION     0.61     1.04  1371.07     0  04:37        0.32
  FID5436              JUNCTION     0.56     0.88  1372.20     0  04:35        0.27
  FID5438              JUNCTION     0.50     0.81  1372.24     0  04:35        0.25
  J49                  JUNCTION     0.54     0.65  1375.67     0  04:16        0.20
  J50                  JUNCTION     0.58     0.70  1375.66     0  04:16        0.21
  J51                  JUNCTION     0.63     0.76  1375.65     0  04:15        0.23
  J52                  JUNCTION     0.64     0.77  1375.65     0  04:15        0.24
  J53                  JUNCTION     0.43     0.60  1375.52     0  04:06        0.18
  J54                  JUNCTION     0.43     0.58  1375.53     0  04:07        0.18
  J55                  JUNCTION     0.48     0.60  1375.63     0  04:15        0.18
  J56                  JUNCTION     0.46     0.58  1375.61     0  04:15        0.18
  J57                  JUNCTION     0.43     0.56  1375.59     0  04:21        0.17
  J58                  JUNCTION     0.43     0.57  1375.55     0  04:21        0.18
  FID1935              JUNCTION     0.43     0.61  1375.50     0  04:05        0.19
  J59                  JUNCTION     0.43     0.61  1375.48     0  04:06        0.18
  J60                  JUNCTION     0.42     0.60  1375.43     0  04:07        0.18
  J61                  JUNCTION     0.41     0.60  1375.37     0  04:08        0.18
  J62                  JUNCTION     0.40     0.60  1375.35     0  04:08        0.18
  J63                  JUNCTION     0.41     0.64  1375.32     0  04:08        0.19
  J64                  JUNCTION     0.40     0.64  1375.25     0  04:09        0.19
  J65                  JUNCTION     0.37     0.62  1375.20     0  04:10        0.19
  J66                  JUNCTION     0.45     0.74  1374.95     0  04:23        0.23
  J67                  JUNCTION     0.45     0.75  1374.90     0  04:24        0.23
  J68                  JUNCTION     0.44     0.77  1374.83     0  04:30        0.23
  J69                  JUNCTION     0.59     1.03  1374.75     0  04:31        0.31
  J70                  JUNCTION     0.58     1.01  1374.67     0  04:32        0.31
  J71                  JUNCTION     0.56     1.01  1374.61     0  04:34        0.31
  J72                  JUNCTION     0.57     0.86  1374.21     0  04:35        0.26
  J73                  JUNCTION     0.59     0.89  1374.11     0  04:34        0.27
  J74                  JUNCTION     0.59     0.88  1373.87     0  04:38        0.27
  J75                  JUNCTION     0.59     0.88  1373.73     0  04:39        0.27
  J76                  JUNCTION     0.55     0.87  1373.20     0  04:35        0.26
  J77                  JUNCTION     0.55     0.87  1373.07     0  04:34        0.26
  J78                  JUNCTION     0.55     0.87  1372.94     0  04:35        0.26
  J79                  JUNCTION     0.55     0.86  1372.87     0  04:35        0.26
  J80                  JUNCTION     0.48     0.79  1372.27     0  04:36        0.24
  J81                  JUNCTION     0.54     0.85  1371.84     0  04:39        0.26
  J82                  JUNCTION     0.53     0.84  1371.77     0  04:40        0.26
  J83                  JUNCTION     0.46     0.79  1371.59     0  04:40        0.24
  J84                  JUNCTION     0.42     0.73  1371.36     0  04:38        0.22
  J85                  JUNCTION     0.43     0.76  1371.28     0  04:38        0.23
  J86                  JUNCTION     0.46     0.82  1371.19     0  04:38        0.25
  J87                  JUNCTION     0.53     0.93  1371.12     0  04:38        0.28
  J88                  JUNCTION     0.60     1.02  1371.07     0  04:37        0.31
  J89                  JUNCTION     0.64     1.07  1371.06     0  04:37        0.33
  J90                  JUNCTION     0.60     1.00  1370.95     0  04:33        0.31
  J91                  JUNCTION     0.59     1.00  1370.89     0  04:33        0.31
  J92                  JUNCTION     0.59     1.00  1370.84     0  04:33        0.31
  J93                  JUNCTION     0.59     1.01  1370.73     0  04:33        0.31
  J94                  JUNCTION     0.59     1.01  1370.66     0  04:32        0.31
  J95                  JUNCTION     0.59     1.01  1370.64     0  04:32        0.31
  J96                  JUNCTION     0.58     1.00  1370.55     0  04:32        0.30
  J97                  JUNCTION     0.57     0.99  1370.48     0  04:33        0.30
  J98                  JUNCTION     0.56     0.97  1370.42     0  04:34        0.30
  J99                  JUNCTION     0.55     0.95  1370.35     0  04:35        0.29
  J100                 JUNCTION     0.53     0.93  1370.29     0  04:35        0.28
  J101                 JUNCTION     0.51     0.90  1370.23     0  04:35        0.28
  J102                 JUNCTION     0.44     0.81  1370.08     0  04:35        0.25
  J103                 JUNCTION     0.44     0.81  1370.03     0  04:35        0.25
  J104                 JUNCTION     0.43     0.79  1369.95     0  04:36        0.24
  J105                 JUNCTION     0.42     0.77  1369.90     0  04:36        0.24
  J106                 JUNCTION     0.41     0.74  1369.82     0  04:36        0.23
  J107                 JUNCTION     0.40     0.74  1369.68     0  04:37        0.23
  J108                 JUNCTION     0.40     0.74  1369.54     0  04:37        0.23
  J109                 JUNCTION     0.40     0.74  1369.43     0  04:38        0.23
  J110                 JUNCTION     0.40     0.75  1369.33     0  04:38        0.23
  J111                 JUNCTION     0.40     0.75  1369.23     0  04:38        0.23
  J112                 JUNCTION     0.40     0.75  1369.07     0  04:39        0.23
  J113                 JUNCTION     0.40     0.75  1368.98     0  04:39        0.23
  J114                 JUNCTION     0.40     0.75  1368.86     0  04:39        0.23
  J115                 JUNCTION     0.40     0.75  1368.80     0  04:40        0.23
  J116                 JUNCTION     0.40     0.75  1368.73     0  04:40        0.23
  J117                 JUNCTION     0.40     0.75  1368.63     0  04:40        0.23
  J118                 JUNCTION     0.40     0.74  1368.52     0  04:41        0.23
  J119                 JUNCTION     0.41     0.74  1368.45     0  04:41        0.23
  J120                 JUNCTION     0.42     0.73  1368.33     0  04:41        0.22
  FID2451              JUNCTION     0.45     0.73  1375.01     0  04:23        0.22
  J121                 JUNCTION     0.44     0.77  1371.51     0  04:39        0.23
  J122                 JUNCTION     0.45     0.76  1371.48     0  04:38        0.23
  FID3706              JUNCTION     0.59     1.01  1370.74     0  04:33        0.31
  FID2831              JUNCTION     0.59     1.01  1370.63     0  04:32        0.31
  FID2689              OUTFALL      0.25     0.46  1367.96     0  04:41        0.14
  
  
  *******************
  Node Inflow Summary
  *******************
  
  -------------------------------------------------------------------------------------------------
                                  Maximum  Maximum                  Lateral       Total        Flow
                                  Lateral    Total  Time of Max      Inflow      Inflow     Balance
                                   Inflow   Inflow   Occurrence      Volume      Volume       Error
  Node                 Type           CMS      CMS  days hr:min    10^6 ltr    10^6 ltr     Percent
  -------------------------------------------------------------------------------------------------
  FID1936              JUNCTION     0.196    0.196     0  04:05       0.247       0.247       0.068
  FID1955              JUNCTION     0.174    0.174     0  04:15       0.595       0.595       0.030
  FID1960              JUNCTION     0.080    0.080     0  04:15       0.271       0.271       0.063
  FID1965              JUNCTION     0.040    0.040     0  04:15       0.137       0.137       0.128
  FID1968              JUNCTION     0.012    0.012     0  04:15      0.0412      0.0411       0.425
  FID2239              JUNCTION     0.014    0.014     0  04:05       0.043       0.043       1.167
  FID2241              JUNCTION     0.000    0.013     0  04:05           0      0.0404       0.430
  FID2242              JUNCTION     0.013    0.013     0  04:05      0.0405      0.0405       0.449
  FID2244              JUNCTION     0.007    0.007     0  03:30      0.0157      0.0157       1.121
  FID2440              JUNCTION     0.000    1.224     0  04:09           0        15.3       0.278
  FID2442              JUNCTION     0.000    0.000     0  00:00           0           0       0.000 ltr
  FID2446              JUNCTION     0.144    0.144     0  04:05       0.175       0.175       1.007
  FID2447              JUNCTION     0.000    0.140     0  04:05           0       0.173      -0.462
  FID2455              JUNCTION     0.100    1.248     0  04:11       0.313        15.3       0.274
  FID2711              JUNCTION     0.000    0.040     0  04:05           0       0.052       0.429
  FID2719              JUNCTION     0.162    0.162     0  04:05       0.242       0.242       0.231
  FID2720              JUNCTION     0.041    0.041     0  04:05      0.0522      0.0522       0.420
  FID2824              JUNCTION     0.000    0.004     0  04:10    0.000715      0.0107       1.605
  FID2827              JUNCTION     0.000    0.004     0  04:10     0.00081      0.0101       1.398
  FID2828              JUNCTION     0.003    0.003     0  04:10     0.00956     0.00956       2.697
  FID2832              JUNCTION     0.000    0.195     0  04:10           0        0.62       0.047
  FID2833              JUNCTION     0.195    0.195     0  04:10        0.62        0.62       0.042
  FID2839              JUNCTION     0.347    0.347     0  04:10        1.19        1.19       0.034
  FID2873              JUNCTION     0.026    0.026     0  04:10      0.0814      0.0814       0.802
  FID2964              JUNCTION     0.048    0.048     0  04:10       0.153       0.153       0.115
  FID2965              JUNCTION     0.000    1.433     0  04:39           0          16       0.366
  FID4584              JUNCTION     0.000    0.001     0  03:33           0    0.000737      24.285
  FID5068              JUNCTION     0.008    0.008     0  03:30      0.0193      0.0193       0.909
  FID5072              JUNCTION     0.103    1.220     0  04:30       0.316        15.4       0.247
  FID5140              JUNCTION     0.091    0.091     0  04:05       0.387       0.387       0.028
  FID5435              JUNCTION     0.183    0.183     0  04:05       0.767       0.767       0.024
  FID5437              JUNCTION     0.002    0.002     0  03:30     0.00527     0.00527       3.418
  FID5503              JUNCTION     0.000    0.000     0  03:55    0.000765    0.000765      29.238
  FID5504              JUNCTION     0.078    0.078     0  04:10       0.246       0.246       0.102
  FID5527              JUNCTION     0.017    0.017     0  04:10      0.0509      0.0509       0.346
  FID5568              JUNCTION     0.004    1.209     0  04:39     0.00754          15       0.882
  FID5784              JUNCTION     0.000    1.277     0  04:33           0        15.4       0.118
  FID5785              JUNCTION     0.000    0.014     0  04:05           0      0.0425       0.400
  AFID6926             JUNCTION     0.080    0.080     0  04:15       0.253       0.253       0.070
  AFID7360             JUNCTION     0.000    1.436     0  04:41    0.000462        15.9       0.264
  AFID7363             JUNCTION     0.000    1.435     0  04:41           0          16       0.127
  AFID7376             JUNCTION     0.208    0.208     0  04:10       0.673       0.674       0.007
  AFID7377             JUNCTION     0.000    1.419     0  04:35           0        16.1       0.134
  AFID7705             JUNCTION     0.000    0.723     0  04:15           0        14.1       0.308
  AFID7706             JUNCTION     0.000    0.650     0  04:17           0        13.8       0.292
  AFID7792             JUNCTION     0.213    0.213     0  04:05       0.681       0.681       0.026
  AFID8223             JUNCTION     0.000    1.272     0  04:34           0        15.4       0.027
  J1                   JUNCTION     0.668    0.668     0  04:15          21          21       0.173
  FID4901              JUNCTION     0.000    0.484     0  04:20           0        13.7       0.277
  J9                   JUNCTION     0.000    0.668     0  04:15           0          21       0.355
  J11                  JUNCTION     0.000    0.666     0  04:15           0        20.9       0.638
  J12                  JUNCTION     0.007    0.672     0  04:21      0.0252        20.8       0.698
  J13                  JUNCTION    -0.220    0.683     0  04:35       -7.13        20.7      -0.210
  FID4902              JUNCTION     0.000    0.492     0  04:20           0        13.7       0.436
  J14                  JUNCTION     0.344    0.862     0  04:05        0.53        14.2       0.228
  J15                  JUNCTION     0.438    1.163     0  04:05       0.739        14.9       0.188
  J16                  JUNCTION     0.009    1.149     0  04:05      0.0103        14.9       0.189
  FID2449              JUNCTION     0.001    1.071     0  04:09     0.00148        14.7       1.492
  J17                  JUNCTION     0.150    1.337     0  04:08       0.463        15.8       0.137
  J19                  JUNCTION     0.020    1.219     0  04:06      0.0403        15.5       1.542
  FID5069              JUNCTION     0.000    1.220     0  04:30           0        15.4       0.218
  FID5139              JUNCTION     0.000    1.243     0  04:36           0        15.3       0.067
  J24                  JUNCTION     0.016    1.214     0  04:41      0.0459        14.9       0.098
  FID4984              JUNCTION     0.000    1.281     0  04:32           0        15.4       0.992
  FID2669              JUNCTION     0.000    1.726     0  04:38           0        17.6       0.084
  FID2712              JUNCTION     0.000    1.697     0  04:35           0        17.6       0.101
  FID2718              JUNCTION     0.000    1.686     0  04:35           0        17.5       0.071
  FID2838              JUNCTION     0.000    1.555     0  04:30           0        17.1       0.211
  FID2825              JUNCTION     0.000    1.461     0  04:42           0          16       0.351
  FID2823              JUNCTION     0.000    1.458     0  04:41           0          16       0.593
  FID5505              JUNCTION     0.000    1.454     0  04:40           0        16.1       0.162
  FID5436              JUNCTION     0.000    1.371     0  04:30           0        15.9       1.024
  FID5438              JUNCTION     0.000    1.281     0  04:38           0        15.2       0.181
  J49                  JUNCTION     0.000    0.494     0  04:20           0        13.7       0.705
  J50                  JUNCTION     0.000    0.502     0  04:34    0.000304        13.6       1.215
  J51                  JUNCTION     0.000    0.520     0  04:34           0        13.4       0.960
  J52                  JUNCTION     0.000    0.534     0  04:34           0        13.3       0.283
  J53                  JUNCTION     0.000    0.734     0  04:15           0        13.7       0.259
  J54                  JUNCTION     0.000    0.730     0  04:15           0        13.8       0.383
  J55                  JUNCTION     0.000    0.723     0  04:15           0          14       0.356
  J56                  JUNCTION     0.000    0.722     0  04:15           0          14       0.388
  J57                  JUNCTION     0.000    0.723     0  04:15           0        13.9       0.489
  J58                  JUNCTION     0.002    0.727     0  04:16     0.00741        13.9       0.524
  FID1935              JUNCTION     0.000    1.038     0  04:05           0        14.4       0.293
  J59                  JUNCTION     0.000    1.013     0  04:05           0        14.4       0.418
  J60                  JUNCTION     0.009    0.972     0  04:05      0.0103        14.3       0.654
  J61                  JUNCTION     0.000    0.902     0  04:06           0        14.3       0.441
  J62                  JUNCTION     0.000    0.889     0  04:08           0        14.2       0.200
  J63                  JUNCTION     0.000    0.891     0  04:09           0        14.2       0.202
  J64                  JUNCTION     0.000    1.133     0  04:05           0        14.8       0.199
  J65                  JUNCTION     0.027    1.133     0  04:05       0.033        14.8       1.161
  J66                  JUNCTION     0.000    1.219     0  04:10           0        15.2       0.349
  J67                  JUNCTION     0.000    1.211     0  04:10           0        15.2       0.517
  J68                  JUNCTION     0.011    1.202     0  04:11      0.0255        15.1       0.550
  J69                  JUNCTION     0.000    1.328     0  04:08           0        15.7       0.546
  J70                  JUNCTION     0.006    1.301     0  04:08      0.0129        15.7       0.702
  J71                  JUNCTION     0.000    1.252     0  04:06           0        15.6       0.514
  J72                  JUNCTION     0.011    1.191     0  04:34      0.0347        15.3       1.651
  J73                  JUNCTION     0.000    1.218     0  04:30           0        15.3       0.504
  J74                  JUNCTION     0.000    1.216     0  04:33           0        15.3       0.740
  J75                  JUNCTION     0.007    1.212     0  04:35      0.0134        15.2       1.143
  J76                  JUNCTION     0.000    1.243     0  04:36           0        15.3       0.272
  J77                  JUNCTION     0.092    1.276     0  04:30       0.294        15.5       0.496
  J78                  JUNCTION     0.000    1.273     0  04:32           0        15.5       0.370
  J79                  JUNCTION     0.000    1.271     0  04:33           0        15.4       0.135
  J80                  JUNCTION     0.013    1.280     0  04:35      0.0339        15.3       0.844
  J81                  JUNCTION     0.002    1.368     0  04:34     0.00593        15.8       1.468
  J82                  JUNCTION     0.000    1.359     0  04:38           0        15.6       0.585
  J83                  JUNCTION     0.000    1.359     0  04:40           0        15.5       0.460
  J84                  JUNCTION     0.000    1.418     0  04:35           0        16.1       0.239
  J85                  JUNCTION     0.000    1.417     0  04:37           0          16       0.447
  J86                  JUNCTION     0.000    1.416     0  04:39           0          16       0.472
  J87                  JUNCTION     0.003    1.434     0  04:40     0.00914          16       0.204
  J88                  JUNCTION     0.000    1.437     0  04:41           0        15.9       0.296
  J89                  JUNCTION     0.000    1.455     0  04:40           0        16.1       0.459
  J90                  JUNCTION     0.000    1.553     0  04:30           0          17       0.158
  J91                  JUNCTION     0.000    1.550     0  04:30           0          17       0.214
  J92                  JUNCTION     0.000    1.550     0  04:33    3.72e-06          17       0.272
  J93                  JUNCTION     0.000    1.560     0  04:34           0          17       0.150
  J94                  JUNCTION     0.000    1.561     0  04:35    6.89e-06        16.9       0.158
  J95                  JUNCTION     0.000    1.562     0  04:35           0        16.9       0.061
  J96                  JUNCTION     0.000    1.640     0  04:31           0        17.5       0.227
  J97                  JUNCTION     0.000    1.639     0  04:32           0        17.4       0.192
  J98                  JUNCTION     0.000    1.637     0  04:32           0        17.4       0.169
  J99                  JUNCTION     0.000    1.636     0  04:32           0        17.4       0.143
  J100                 JUNCTION     0.000    1.635     0  04:33           0        17.4       0.121
  J101                 JUNCTION     0.000    1.634     0  04:33           0        17.3       0.142
  J102                 JUNCTION     0.000    1.632     0  04:33           0        17.3       0.110
  J103                 JUNCTION     0.000    1.685     0  04:35           0        17.5       0.083
  J104                 JUNCTION     0.000    1.695     0  04:35           0        17.5       0.108
  J105                 JUNCTION     0.000    1.694     0  04:35           0        17.5       0.133
  J106                 JUNCTION     0.000    1.693     0  04:36           0        17.5       0.150
  J107                 JUNCTION     0.000    1.691     0  04:36           0        17.5       0.154
  J108                 JUNCTION     0.000    1.689     0  04:37    2.36e-05        17.4       0.139
  J109                 JUNCTION     0.000    1.688     0  04:37           0        17.4       0.118
  J110                 JUNCTION     0.000    1.687     0  04:37           0        17.4       0.118
  J111                 JUNCTION     0.000    1.687     0  04:38    0.000207        17.4       0.083
  J112                 JUNCTION     0.000    1.726     0  04:38           0        17.6       0.118
  J113                 JUNCTION     0.000    1.725     0  04:38           0        17.6       0.116
  J114                 JUNCTION     0.000    1.725     0  04:39           0        17.6       0.097
  J115                 JUNCTION     0.000    1.724     0  04:39           0        17.5       0.073
  J116                 JUNCTION     0.000    1.724     0  04:39    6.66e-06        17.5       0.096
  J117                 JUNCTION     0.000    1.723     0  04:40           0        17.5       0.118
  J118                 JUNCTION     0.000    1.723     0  04:40           0        17.5       0.104
  J119                 JUNCTION     0.000    1.722     0  04:40           0        17.5       0.103
  J120                 JUNCTION     0.000    1.722     0  04:41           0        17.5       0.127
  FID2451              JUNCTION     0.000    1.063     0  04:10           0        14.6       0.278
  J121                 JUNCTION     0.006    1.360     0  04:41      0.0179        15.5       0.135
  J122                 JUNCTION     0.000    1.360     0  04:42    0.000817        15.4       0.116
  FID3706              JUNCTION     0.000    1.559     0  04:34           0          17       0.208
  FID2831              JUNCTION     0.000    1.641     0  04:31           0        17.5       0.139
  FID2689              OUTFALL      0.000    1.722     0  04:41           0        17.4       0.000
  
  
  **********************
  Node Surcharge Summary
  **********************
  
  Surcharging occurs when water rises above the top of the highest conduit.
  ---------------------------------------------------------------------
                                               Max. Height   Min. Depth
                                   Hours       Above Crown    Below Rim
  Node                 Type      Surcharged         Meters       Meters
  ---------------------------------------------------------------------
  FID2446              JUNCTION        0.05          0.023        0.000
  J19                  JUNCTION        0.93          0.144        0.000
  J70                  JUNCTION        0.89          0.155        0.000
  J71                  JUNCTION        0.91          0.149        0.000
  J89                  JUNCTION        0.37          0.013        0.000
  
  
  *********************
  Node Flooding Summary
  *********************
  
  Flooding refers to all water that overflows a node, whether it ponds or not.
  --------------------------------------------------------------------------
                                                             Total   Maximum
                                 Maximum   Time of Max       Flood    Ponded
                        Hours       Rate    Occurrence      Volume     Depth
  Node                 Flooded       CMS   days hr:min    10^6 ltr    Meters
  --------------------------------------------------------------------------
  FID2446                 0.05     0.005      0  03:35       0.000     0.023
  J19                     0.93     0.138      0  04:09       0.087     0.144
  J70                     0.89     0.064      0  04:11       0.055     0.155
  J71                     0.91     0.056      0  04:10       0.042     0.149
  J89                     0.37     0.010      0  04:30       0.003     0.013
  
  
  ***********************
  Outfall Loading Summary
  ***********************
  
  -----------------------------------------------------------------------------------------------------
                         Flow       Avg       Max       Total         Total         Total         Total
                         Freq      Flow      Flow      Volume           TSS            TP           TDP
  Outfall Node           Pcnt       CMS       CMS    10^6 ltr            kg            kg            kg
  -----------------------------------------------------------------------------------------------------
  FID2689               73.07     0.995     1.722      17.438      6892.068         4.782         5.933
  -----------------------------------------------------------------------------------------------------
  System                73.07     0.995     1.722      17.438      6892.068         4.782         5.933
  
  
  ********************
  Link Flow Summary
  ********************
  
  -----------------------------------------------------------------------------
                                 Maximum  Time of Max   Maximum    Max/    Max/
                                  |Flow|   Occurrence   |Veloc|    Full    Full
  Link                 Type          CMS  days hr:min     m/sec    Flow   Depth
  -----------------------------------------------------------------------------
  FID1123              CONDUIT     0.026     0  04:10      0.83    0.42    0.72
  FID1139              CONDUIT     0.156     0  04:05      1.52    1.09    0.85
  FID1148              CONDUIT     0.195     0  04:10      1.09    0.47    0.32
  FID1149              CONDUIT     0.195     0  04:10      2.27    0.07    0.37
  FID3364              CONDUIT     0.207     0  04:10      0.88    0.17    0.44
  FID3671              CONDUIT     0.012     0  04:15      1.18    0.09    0.20
  FID3672              CONDUIT     0.040     0  04:15      1.65    0.29    0.37
  FID3762              CONDUIT     0.080     0  04:15      1.45    0.23    0.59
  FID3765              CONDUIT     0.174     0  04:15      2.27    0.48    0.69
  FID4112              CONDUIT     0.195     0  04:05      1.81    0.33    0.40
  FID4186              CONDUIT     0.013     0  04:05      1.01    0.06    0.17
  FID4187              CONDUIT     0.013     0  04:05      1.59    0.03    0.12
  FID4201              CONDUIT     0.140     0  04:05      1.29    1.40    0.90
  FID4202              CONDUIT     0.139     0  04:05      1.49    0.99    0.76
  FID4203              CONDUIT     0.000     0  00:00      0.00    0.00    0.31
  FID4299              CONDUIT     0.008     0  03:30      0.99    0.03    0.12
  FID4372              CONDUIT     0.091     0  04:05      0.64    0.02    0.37
  FID4498              CONDUIT     0.048     0  04:10      0.42    0.22    0.74
  FID4806              CONDUIT     0.183     0  04:05      5.10    0.02    0.10
  FID4807              CONDUIT     0.002     0  03:30      0.76    0.01    0.08
  FID4882              CONDUIT     0.000     0  04:10      0.03    0.00    0.52
  FID4884              CONDUIT     0.078     0  04:10      1.97    0.03    0.19
  FID4914              CONDUIT     0.017     0  04:10      0.24    0.06    0.58
  FID4915              CONDUIT     0.003     0  04:10      0.25    0.09    0.21
  FID4916              CONDUIT     0.004     0  04:10      0.30    0.09    0.16
  FID4917              CONDUIT     0.004     0  04:10      0.86    0.01    0.54
  FID5307              CONDUIT     0.014     0  04:05      0.48    0.25    0.30
  FID5308              CONDUIT     0.007     0  03:30      1.27    0.04    0.13
  FID5312              CONDUIT     0.014     0  04:05      0.65    0.08    0.19
  FID5865              CONDUIT     0.347     0  04:10      3.52    0.15    0.38
  C9                   CHANNEL     0.668     0  04:15      0.58    0.10    0.54
  C12                  CHANNEL     0.668     0  04:35      0.39    0.40    0.67
  C13                  CHANNEL     0.683     0  04:35      0.53    0.41    0.70
  C14                  CHANNEL     0.469     0  04:35      0.52    0.28    0.71
  C52                  CONDUIT     0.213     0  04:05      1.19    0.32    0.66
  C130                 CONDUIT     0.040     0  04:05      0.66    0.73    0.40
  C131                 CONDUIT     0.040     0  04:05      1.74    0.08    0.49
  C139                 CONDUIT     0.001     0  03:33      0.08    0.02    0.52
  C191                 CHANNEL     0.494     0  04:20      0.40    0.29    0.75
  C193                 CHANNEL     0.520     0  04:34      0.31    0.31    0.85
  C194                 CHANNEL     0.534     0  04:34      0.26    0.32    0.89
  C195                 CHANNEL     0.537     0  04:34      0.30    0.14    0.71
  C196                 CONDUIT     0.485     0  04:20      0.38    0.48    0.79
  C197                 CONDUIT     0.651     0  04:17      0.21    0.42    0.98
  C198                 CHANNEL     0.723     0  04:15      0.26    0.19    0.61
  C199                 CHANNEL     0.722     0  04:15      0.25    4.29    0.71
  C200                 CHANNEL     0.723     0  04:15      0.28    3.88    0.68
  C201                 CHANNEL     0.726     0  04:16      0.27    0.29    0.57
  C202                 CHANNEL     0.730     0  04:15      0.27    0.29    0.58
  C203                 CHANNEL     0.734     0  04:15      0.27    0.30    0.59
  C204                 CHANNEL     0.738     0  04:15      0.39    0.30    0.60
  C205                 CONDUIT     0.843     0  04:05      0.29    0.79    0.73
  C206                 CHANNEL     1.013     0  04:05      0.35    0.41    0.61
  C207                 CHANNEL     0.967     0  04:05      0.33    0.39    0.60
  C208                 CHANNEL     0.902     0  04:06      0.31    0.36    0.60
  C209                 CHANNEL     0.889     0  04:08      0.31    0.36    0.60
  C210                 CHANNEL     0.891     0  04:09      0.38    0.37    0.71
  C211                 CHANNEL     0.895     0  04:10      0.37    0.44    0.65
  C212                 CONDUIT     1.141     0  04:05      0.37    0.90    0.78
  C213                 CHANNEL     1.133     0  04:05      0.47    0.56    0.65
  C214                 CHANNEL     1.116     0  04:06      0.48    0.55    0.64
  C215                 CONDUIT     1.070     0  04:09      0.33    0.84    0.83
  C216                 CONDUIT     1.050     0  04:11      0.41    1.06    0.69
  C217                 CONDUIT     1.061     0  04:11      0.34    0.57    0.53
  C218                 CHANNEL     1.219     0  04:10      0.43    0.60    0.75
  C219                 CHANNEL     1.211     0  04:10      0.43    0.60    0.76
  C220                 CHANNEL     1.197     0  04:11      0.43    0.59    0.77
  C221                 CHANNEL     1.178     0  04:11      0.43    0.58    0.79
  C222                 CONDUIT     1.226     0  04:10      0.43    1.12    0.96
  C223                 CHANNEL     1.328     0  04:08      0.46    0.23    0.81
  C224                 CHANNEL     1.298     0  04:08      0.42    1.15    1.00
  C225                 CHANNEL     1.252     0  04:06      0.42    1.11    1.00
  C226                 CHANNEL     1.209     0  04:06      0.45    1.07    1.00
  C227                 CONDUIT     1.188     0  04:35      0.34    1.31    1.00
  C228                 CHANNEL     1.191     0  04:37      0.52    0.66    0.80
  C229                 CONDUIT     1.217     0  04:30      0.27    0.29    0.58
  C230                 CHANNEL     1.218     0  04:30      0.52    0.68    0.82
  C231                 CHANNEL     1.216     0  04:33      0.52    0.68    0.82
  C232                 CHANNEL     1.212     0  04:35      0.51    0.67    0.82
  C233                 CHANNEL     1.209     0  04:39      0.52    0.67    0.81
  C234                 CONDUIT     1.213     0  04:41      0.41    0.68    0.63
  C235                 CHANNEL     1.214     0  04:41      0.53    0.67    0.80
  C236                 CHANNEL     1.243     0  04:36      0.51    0.81    0.90
  C237                 CHANNEL     1.244     0  04:37      0.51    0.81    0.90
  C238                 CHANNEL     1.273     0  04:32      0.53    0.83    0.90
  C239                 CHANNEL     1.271     0  04:33      0.53    0.83    0.90
  C240                 CHANNEL     1.271     0  04:34      0.53    0.81    0.89
  C241                 CHANNEL     1.272     0  04:34      0.60    0.83    0.89
  C242                 CONDUIT     1.276     0  04:33      0.40    0.61    0.72
  C243                 CHANNEL     1.278     0  04:36      0.55    0.83    0.86
  C244                 CHANNEL     1.281     0  04:38      0.76    0.29    0.51
  C245                 CONDUIT     1.282     0  04:39      0.48    0.48    0.66
  C246                 CHANNEL     1.363     0  04:34      0.45    0.60    0.75
  C247                 CHANNEL     1.359     0  04:38      0.46    0.59    0.74
  C248                 CHANNEL     1.359     0  04:40      0.48    0.59    0.71
  C249                 CHANNEL     1.360     0  04:41      3.15    0.75    0.74
  C250                 CONDUIT     1.360     0  04:42      0.56    0.68    0.60
  C251                 CONDUIT     1.361     0  04:42      0.56    0.68    0.60
  C252                 CHANNEL     1.418     0  04:35      4.26    0.78    0.70
  C253                 CHANNEL     1.417     0  04:37      0.47    0.44    0.70
  C254                 CHANNEL     1.416     0  04:39      1.64    0.44    0.75
  C255                 CHANNEL     1.417     0  04:40      1.40    0.44    0.81
  C256                 CHANNEL     1.434     0  04:40      0.38    0.44    0.86
  C257                 CHANNEL     1.435     0  04:41      0.45    0.44    0.89
  C258                 CONDUIT     1.436     0  04:41      0.48    0.72    0.75
  C259                 CHANNEL     1.437     0  04:41      0.63    0.44    0.94
  C260                 CHANNEL     1.439     0  04:42      0.38    0.45    0.98
  C261                 CHANNEL     1.455     0  04:40      2.26    0.45    0.99
  C262                 CHANNEL     1.458     0  04:41      0.30    0.45    1.00
  C263                 CHANNEL     1.461     0  04:42      0.38    0.46    0.72
  C264                 CONDUIT     1.463     0  04:42      0.45    1.03    0.78
  C265                 CHANNEL     1.553     0  04:30      0.46    0.49    0.65
  C266                 CHANNEL     1.550     0  04:30      0.48    0.41    0.70
  C267                 CHANNEL     1.550     0  04:33      0.48    0.41    0.70
  C268                 CHANNEL     1.550     0  04:35      0.48    0.41    0.70
  C269                 CHANNEL     1.560     0  04:34      0.48    0.42    0.70
  C270                 CHANNEL     1.561     0  04:35      0.49    0.42    0.70
  C271                 CHANNEL     1.562     0  04:35      0.49    0.42    0.70
  C272                 CHANNEL     1.563     0  04:35      0.49    0.42    0.70
  C273                 CHANNEL     1.640     0  04:31      0.51    0.44    0.70
  C274                 CHANNEL     1.639     0  04:32      0.52    0.44    0.69
  C275                 CHANNEL     1.637     0  04:32      0.53    0.44    0.68
  C276                 CHANNEL     1.636     0  04:32      0.55    0.44    0.67
  C277                 CHANNEL     1.635     0  04:33      0.57    0.44    0.66
  C278                 CHANNEL     1.634     0  04:33      0.60    0.44    0.64
  C279                 CHANNEL     1.632     0  04:33      0.68    0.44    0.60
  C280                 CHANNEL     1.631     0  04:36      0.57    0.76    0.83
  C281                 CHANNEL     1.685     0  04:35      0.59    0.78    0.82
  C282                 CHANNEL     1.683     0  04:35      0.59    0.78    0.82
  C283                 CHANNEL     1.695     0  04:35      0.60    0.78    0.81
  C284                 CHANNEL     1.694     0  04:35      0.62    0.78    0.79
  C285                 CHANNEL     1.693     0  04:36      0.64    0.78    0.77
  C286                 CHANNEL     1.691     0  04:36      0.71    0.56    0.76
  C287                 CHANNEL     1.689     0  04:37      0.71    0.56    0.76
  C288                 CHANNEL     1.688     0  04:37      0.71    0.56    0.76
  C289                 CHANNEL     1.687     0  04:37      0.70    0.56    0.76
  C290                 CHANNEL     1.687     0  04:38      0.70    0.56    0.76
  C291                 CHANNEL     1.686     0  04:38      0.70    0.56    0.76
  C292                 CHANNEL     1.726     0  04:38      0.71    0.57    0.76
  C293                 CHANNEL     1.725     0  04:38      0.71    0.57    0.76
  C294                 CHANNEL     1.725     0  04:39      0.71    0.57    0.76
  C295                 CHANNEL     1.724     0  04:39      0.71    0.57    0.76
  C296                 CHANNEL     1.724     0  04:39      0.71    0.57    0.76
  C297                 CHANNEL     1.723     0  04:40      0.72    0.57    0.76
  C298                 CHANNEL     1.723     0  04:40      0.72    0.57    0.76
  C299                 CHANNEL     1.722     0  04:40      0.72    0.57    0.76
  C300                 CHANNEL     1.722     0  04:41      0.73    0.57    0.75
  C301                 CHANNEL     1.722     0  04:41      1.21    0.42    0.46
  C302                 CHANNEL     0.666     0  04:15      0.50    0.14    0.50
  C303                 CHANNEL     0.502     0  04:34      0.36    0.30    0.79
  C353                 CONDUIT     0.080     0  04:15      1.93    0.03    0.11
  
  
  ***************************
  Flow Classification Summary
  ***************************
  
  -------------------------------------------------------------------------------------
                      Adjusted    ---------- Fraction of Time in Flow Class ---------- 
                       /Actual         Up    Down  Sub   Sup   Up    Down  Norm  Inlet 
  Conduit               Length    Dry  Dry   Dry   Crit  Crit  Crit  Crit  Ltd   Ctrl  
  -------------------------------------------------------------------------------------
  FID1123                 1.00   0.15  0.00  0.00  0.46  0.00  0.00  0.39  0.33  0.00
  FID1139                 1.00   0.13  0.00  0.00  0.34  0.00  0.00  0.52  0.24  0.00
  FID1148                 1.00   0.11  0.00  0.00  0.47  0.00  0.00  0.42  0.00  0.00
  FID1149                 1.00   0.12  0.00  0.00  0.73  0.03  0.00  0.12  0.59  0.00
  FID3364                 1.00   0.11  0.00  0.00  0.83  0.00  0.00  0.06  0.65  0.00
  FID3671                 1.00   0.17  0.00  0.00  0.00  0.00  0.00  0.83  0.00  0.00
  FID3672                 1.00   0.15  0.00  0.00  0.00  0.00  0.00  0.85  0.00  0.00
  FID3762                 1.00   0.02  0.13  0.00  0.82  0.04  0.00  0.00  0.67  0.00
  FID3765                 1.00   0.01  0.13  0.00  0.71  0.15  0.00  0.00  0.67  0.00
  FID4112                 1.00   0.13  0.00  0.00  0.00  0.00  0.00  0.87  0.00  0.00
  FID4186                 1.00   0.19  0.00  0.00  0.24  0.25  0.00  0.32  0.00  0.00
  FID4187                 1.00   0.20  0.00  0.00  0.00  0.00  0.00  0.80  0.00  0.00
  FID4201                 1.00   0.13  0.00  0.00  0.78  0.00  0.00  0.09  0.38  0.00
  FID4202                 1.00   0.15  0.00  0.00  0.00  0.00  0.00  0.85  0.00  0.00
  FID4203                 1.00   0.14  0.86  0.00  0.00  0.00  0.00  0.00  0.00  0.00
  FID4299                 1.00   0.19  0.00  0.00  0.00  0.00  0.00  0.81  0.00  0.00
  FID4372                 1.00   0.08  0.05  0.00  0.86  0.00  0.00  0.00  0.68  0.00
  FID4498                 1.00   0.15  0.00  0.00  0.81  0.00  0.00  0.04  0.43  0.00
  FID4806                 1.00   0.14  0.00  0.00  0.00  0.00  0.00  0.86  0.00  0.00
  FID4807                 1.00   0.21  0.00  0.00  0.00  0.00  0.00  0.79  0.00  0.00
  FID4882                 1.00   0.22  0.47  0.00  0.31  0.00  0.00  0.00  0.60  0.00
  FID4884                 1.00   0.12  0.00  0.00  0.34  0.04  0.00  0.50  0.27  0.00
  FID4914                 1.00   0.14  0.01  0.00  0.85  0.00  0.00  0.00  0.66  0.00
  FID4915                 1.00   0.20  0.00  0.00  0.79  0.00  0.00  0.01  0.49  0.00
  FID4916                 1.00   0.21  0.00  0.00  0.61  0.00  0.00  0.18  0.00  0.00
  FID4917                 1.00   0.22  0.00  0.00  0.76  0.00  0.00  0.02  0.60  0.00
  FID5307                 1.00   0.19  0.00  0.00  0.78  0.00  0.00  0.03  0.36  0.00
  FID5308                 1.00   0.19  0.00  0.00  0.00  0.00  0.00  0.81  0.00  0.00
  FID5312                 1.00   0.20  0.00  0.00  0.00  0.00  0.00  0.80  0.00  0.00
  FID5865                 1.00   0.10  0.00  0.00  0.41  0.09  0.00  0.40  0.36  0.00
  C9                      1.00   0.00  0.00  0.00  1.00  0.00  0.00  0.00  0.00  0.00
  C12                     1.00   0.00  0.00  0.00  1.00  0.00  0.00  0.00  0.00  0.00
  C13                     1.00   0.00  0.00  0.00  1.00  0.00  0.00  0.00  0.00  0.00
  C14                     1.00   0.00  0.00  0.00  1.00  0.00  0.00  0.00  0.00  0.00
  C52                     1.00   0.04  0.10  0.00  0.86  0.00  0.00  0.00  0.68  0.00
  C130                    1.00   0.17  0.00  0.00  0.55  0.00  0.00  0.27  0.00  0.00
  C131                    1.00   0.20  0.00  0.00  0.57  0.01  0.00  0.21  0.44  0.00
  C139                    1.00   0.11  0.49  0.00  0.39  0.00  0.01  0.00  0.48  0.00
  C191                    1.00   0.00  0.00  0.00  1.00  0.00  0.00  0.00  0.00  0.00
  C193                    1.00   0.00  0.00  0.00  1.00  0.00  0.00  0.00  0.00  0.00
  C194                    1.00   0.01  0.00  0.00  0.99  0.00  0.00  0.00  0.00  0.00
  C195                    1.00   0.01  0.00  0.00  0.99  0.00  0.00  0.00  0.00  0.00
  C196                    1.00   0.00  0.00  0.00  1.00  0.00  0.00  0.00  0.00  0.00
  C197                    1.00   0.01  0.00  0.00  0.99  0.00  0.00  0.00  0.00  0.00
  C198                    1.00   0.01  0.00  0.00  0.99  0.00  0.00  0.00  0.00  0.00
  C199                    1.00   0.01  0.00  0.00  0.99  0.00  0.00  0.00  0.00  0.00
  C200                    1.00   0.01  0.00  0.00  0.99  0.00  0.00  0.00  0.00  0.00
  C201                    1.00   0.01  0.00  0.00  0.99  0.00  0.00  0.00  0.00  0.00
  C202                    1.00   0.01  0.00  0.00  0.99  0.00  0.00  0.00  0.00  0.00
  C203                    1.00   0.02  0.00  0.00  0.98  0.00  0.00  0.00  0.00  0.00
  C204                    1.00   0.02  0.00  0.00  0.98  0.00  0.00  0.00  0.00  0.00
  C205                    1.00   0.02  0.00  0.00  0.98  0.00  0.00  0.00  0.00  0.00
  C206                    1.00   0.02  0.00  0.00  0.98  0.00  0.00  0.00  0.00  0.00
  C207                    1.00   0.02  0.00  0.00  0.98  0.00  0.00  0.00  0.00  0.00
  C208                    1.00   0.02  0.00  0.00  0.98  0.00  0.00  0.00  0.00  0.00
  C209                    1.00   0.02  0.00  0.00  0.98  0.00  0.00  0.00  0.00  0.00
  C210                    1.00   0.03  0.00  0.00  0.97  0.00  0.00  0.00  0.00  0.00
  C211                    1.00   0.03  0.00  0.00  0.97  0.00  0.00  0.00  0.00  0.00
  C212                    1.00   0.03  0.00  0.00  0.97  0.00  0.00  0.00  0.00  0.00
  C213                    1.00   0.03  0.00  0.00  0.97  0.00  0.00  0.00  0.00  0.00
  C214                    1.00   0.03  0.00  0.00  0.97  0.00  0.00  0.00  0.00  0.00
  C215                    1.00   0.03  0.00  0.00  0.97  0.00  0.00  0.00  0.20  0.00
  C216                    1.00   0.03  0.00  0.00  0.97  0.00  0.00  0.00  0.00  0.00
  C217                    1.00   0.03  0.00  0.00  0.97  0.00  0.00  0.00  0.00  0.00
  C218                    1.00   0.03  0.00  0.00  0.97  0.00  0.00  0.00  0.00  0.00
  C219                    1.00   0.04  0.00  0.00  0.96  0.00  0.00  0.00  0.00  0.00
  C220                    1.00   0.04  0.00  0.00  0.96  0.00  0.00  0.00  0.00  0.00
  C221                    1.00   0.05  0.00  0.00  0.95  0.00  0.00  0.00  0.00  0.00
  C222                    1.00   0.05  0.00  0.00  0.95  0.00  0.00  0.00  0.00  0.00
  C223                    1.00   0.05  0.00  0.00  0.95  0.00  0.00  0.00  0.01  0.00
  C224                    1.00   0.05  0.00  0.00  0.95  0.00  0.00  0.00  0.00  0.00
  C225                    1.00   0.05  0.00  0.00  0.95  0.00  0.00  0.00  0.00  0.00
  C226                    1.00   0.05  0.00  0.00  0.95  0.00  0.00  0.00  0.00  0.00
  C227                    1.00   0.06  0.00  0.00  0.94  0.00  0.00  0.00  0.00  0.00
  C228                    1.00   0.06  0.00  0.00  0.94  0.00  0.00  0.00  0.00  0.00
  C229                    1.00   0.06  0.00  0.00  0.94  0.00  0.00  0.00  0.00  0.00
  C230                    1.00   0.07  0.00  0.00  0.93  0.00  0.00  0.00  0.00  0.00
  C231                    1.00   0.07  0.00  0.00  0.93  0.00  0.00  0.00  0.00  0.00
  C232                    1.00   0.07  0.00  0.00  0.93  0.00  0.00  0.00  0.00  0.00
  C233                    1.00   0.07  0.00  0.00  0.93  0.00  0.00  0.00  0.00  0.00
  C234                    1.00   0.08  0.00  0.00  0.92  0.00  0.00  0.00  0.00  0.00
  C235                    1.00   0.08  0.00  0.00  0.92  0.00  0.00  0.00  0.00  0.00
  C236                    1.00   0.08  0.00  0.00  0.92  0.00  0.00  0.00  0.00  0.00
  C237                    1.00   0.08  0.00  0.00  0.92  0.00  0.00  0.00  0.00  0.00
  C238                    1.00   0.08  0.00  0.00  0.92  0.00  0.00  0.00  0.00  0.00
  C239                    1.00   0.08  0.00  0.00  0.92  0.00  0.00  0.00  0.00  0.00
  C240                    1.00   0.09  0.00  0.00  0.91  0.00  0.00  0.00  0.00  0.00
  C241                    1.00   0.09  0.00  0.00  0.91  0.00  0.00  0.00  0.00  0.00
  C242                    1.00   0.09  0.00  0.00  0.91  0.00  0.00  0.00  0.00  0.00
  C243                    1.00   0.09  0.00  0.00  0.91  0.00  0.00  0.00  0.00  0.00
  C244                    1.00   0.09  0.00  0.00  0.90  0.00  0.00  0.00  0.00  0.00
  C245                    1.00   0.10  0.00  0.00  0.90  0.00  0.00  0.00  0.00  0.00
  C246                    1.00   0.10  0.01  0.00  0.89  0.00  0.00  0.00  0.11  0.00
  C247                    1.00   0.10  0.00  0.00  0.90  0.00  0.00  0.00  0.00  0.00
  C248                    1.00   0.12  0.00  0.00  0.88  0.00  0.00  0.00  0.00  0.00
  C249                    1.00   0.10  0.04  0.00  0.86  0.00  0.00  0.00  0.01  0.00
  C250                    1.00   0.10  0.00  0.00  0.90  0.00  0.00  0.00  0.00  0.00
  C251                    1.00   0.11  0.00  0.00  0.89  0.00  0.00  0.00  0.05  0.00
  C252                    1.00   0.11  0.00  0.00  0.88  0.01  0.00  0.00  0.00  0.00
  C253                    1.00   0.12  0.00  0.00  0.88  0.00  0.00  0.00  0.00  0.00
  C254                    1.00   0.16  0.00  0.00  0.84  0.00  0.00  0.00  0.00  0.00
  C255                    1.00   0.15  0.03  0.00  0.83  0.00  0.00  0.00  0.00  0.00
  C256                    1.00   0.10  0.05  0.00  0.85  0.00  0.00  0.00  0.02  0.00
  C257                    1.00   0.10  0.00  0.00  0.90  0.00  0.00  0.00  0.00  0.00
  C258                    1.00   0.10  0.02  0.00  0.87  0.00  0.00  0.00  0.03  0.00
  C259                    1.00   0.10  0.00  0.00  0.90  0.00  0.00  0.00  0.04  0.00
  C260                    1.00   0.12  0.03  0.00  0.85  0.00  0.00  0.00  0.00  0.00
  C261                    1.00   0.12  0.00  0.00  0.87  0.01  0.00  0.00  0.00  0.00
  C262                    1.00   0.12  0.01  0.00  0.87  0.00  0.00  0.00  0.06  0.00
  C263                    1.00   0.11  0.00  0.00  0.89  0.00  0.00  0.00  0.00  0.00
  C264                    1.00   0.10  0.00  0.00  0.90  0.00  0.00  0.00  0.01  0.00
  C265                    1.00   0.10  0.00  0.00  0.89  0.00  0.00  0.00  0.00  0.00
  C266                    1.00   0.11  0.00  0.00  0.89  0.00  0.00  0.00  0.00  0.00
  C267                    1.00   0.16  0.00  0.00  0.84  0.00  0.00  0.00  0.00  0.00
  C268                    1.00   0.15  0.04  0.00  0.81  0.00  0.00  0.00  0.02  0.00
  C269                    1.00   0.15  0.00  0.00  0.85  0.00  0.00  0.00  0.00  0.00
  C270                    1.00   0.16  0.02  0.00  0.82  0.00  0.00  0.00  0.03  0.00
  C271                    1.00   0.14  0.03  0.00  0.84  0.00  0.00  0.00  0.00  0.00
  C272                    1.00   0.12  0.01  0.00  0.87  0.00  0.00  0.00  0.00  0.00
  C273                    1.00   0.12  0.00  0.00  0.88  0.00  0.00  0.00  0.00  0.00
  C274                    1.00   0.13  0.00  0.00  0.87  0.00  0.00  0.00  0.00  0.00
  C275                    1.00   0.16  0.00  0.00  0.84  0.00  0.00  0.00  0.00  0.00
  C276                    1.00   0.20  0.00  0.00  0.80  0.00  0.00  0.00  0.00  0.00
  C277                    1.00   0.22  0.00  0.00  0.78  0.00  0.00  0.00  0.00  0.00
  C278                    1.00   0.23  0.00  0.00  0.77  0.00  0.00  0.00  0.00  0.00
  C279                    1.00   0.19  0.04  0.00  0.77  0.00  0.00  0.00  0.00  0.00
  C280                    1.00   0.13  0.06  0.00  0.81  0.00  0.00  0.00  0.01  0.00
  C281                    1.00   0.13  0.00  0.00  0.87  0.00  0.00  0.00  0.03  0.00
  C282                    1.00   0.14  0.00  0.00  0.86  0.00  0.00  0.00  0.01  0.00
  C283                    1.00   0.15  0.00  0.00  0.85  0.00  0.00  0.00  0.00  0.00
  C284                    1.00   0.17  0.00  0.00  0.83  0.00  0.00  0.00  0.00  0.00
  C285                    1.00   0.20  0.00  0.00  0.80  0.00  0.00  0.00  0.00  0.00
  C286                    1.00   0.22  0.00  0.00  0.78  0.00  0.00  0.00  0.00  0.00
  C287                    1.00   0.13  0.10  0.00  0.77  0.00  0.00  0.00  0.00  0.00
  C288                    1.00   0.13  0.00  0.00  0.87  0.00  0.00  0.00  0.00  0.00
  C289                    1.00   0.25  0.00  0.00  0.75  0.00  0.00  0.00  0.00  0.00
  C290                    1.00   0.12  0.13  0.00  0.75  0.00  0.00  0.00  0.00  0.00
  C291                    1.00   0.12  0.00  0.00  0.88  0.00  0.00  0.00  0.07  0.00
  C292                    1.00   0.15  0.00  0.00  0.85  0.00  0.00  0.00  0.01  0.00
  C293                    1.00   0.16  0.00  0.00  0.84  0.00  0.00  0.00  0.01  0.00
  C294                    1.00   0.17  0.00  0.00  0.83  0.00  0.00  0.00  0.00  0.00
  C295                    1.00   0.20  0.00  0.00  0.80  0.00  0.00  0.00  0.00  0.00
  C296                    1.00   0.19  0.04  0.00  0.77  0.00  0.00  0.00  0.00  0.00
  C297                    1.00   0.19  0.00  0.00  0.81  0.00  0.00  0.00  0.00  0.00
  C298                    1.00   0.25  0.00  0.00  0.75  0.00  0.00  0.00  0.00  0.00
  C299                    1.00   0.26  0.00  0.00  0.74  0.00  0.00  0.00  0.00  0.00
  C300                    1.00   0.26  0.00  0.00  0.74  0.00  0.00  0.00  0.00  0.00
  C301                    1.00   0.27  0.00  0.00  0.73  0.00  0.00  0.00  0.00  0.00
  C302                    1.00   0.00  0.00  0.00  1.00  0.00  0.00  0.00  0.00  0.00
  C303                    1.00   0.00  0.00  0.00  1.00  0.00  0.00  0.00  0.00  0.00
  C353                    1.00   0.15  0.00  0.00  0.00  0.00  0.00  0.85  0.00  0.00
  
  
  *************************
  Conduit Surcharge Summary
  *************************
  
  ----------------------------------------------------------------------------
                                                           Hours        Hours 
                         --------- Hours Full --------   Above Full   Capacity
  Conduit                Both Ends  Upstream  Dnstream   Normal Flow   Limited
  ----------------------------------------------------------------------------
  FID1123                     0.01      0.01      0.95      0.01         0.01
  FID1139                     0.01      0.01      0.01      0.04         0.01
  FID4201                     0.01      0.05      0.01      0.15         0.01
  FID4498                     0.01      0.01      2.48      0.01         0.01
  FID4882                     0.01      0.01      3.06      0.01         0.01
  FID4914                     0.01      0.01      3.37      0.01         0.01
  FID4917                     0.01      0.01      1.72      0.01         0.01
  C197                        0.01      0.01      0.65      0.01         0.01
  C199                        0.01      0.01      0.01      8.52         0.01
  C200                        0.01      0.01      0.01      8.48         0.01
  C216                        0.01      0.01      0.01      0.32         0.01
  C222                        0.01      0.01      0.01      0.62         0.01
  C224                        0.84      0.90      0.89      0.69         0.50
  C225                        0.87      0.89      0.91      0.70         0.53
  C226                        0.90      0.91      0.93      0.71         0.56
  C227                        0.79      1.02      0.79      1.37         0.79
  C261                        0.01      0.01      0.37      0.01         0.01
  C262                        0.37      0.37      1.51      0.01         0.01
  C264                        0.01      0.01      0.01      0.42         0.01
  
  
  ***************************
  Link Pollutant Load Summary
  ***************************
  
  --------------------------------------------------------------
                                 TSS            TP           TDP
  Link                            kg            kg            kg
  --------------------------------------------------------------
  FID1123                     17.746         0.007         0.015
  FID1139                    163.557         0.065         0.082
  FID1148                    296.810         0.141         0.173
  FID1149                    296.332         0.141         0.173
  FID3364                    351.635         0.172         0.217
  FID3671                     16.311         0.011         0.018
  FID3672                     93.648         0.042         0.038
  FID3762                    208.753         0.130         0.178
  FID3765                    355.720         0.198         0.259
  FID4112                    138.988         0.067         0.074
  FID4186                     23.329         0.020         0.035
  FID4187                     22.439         0.019         0.033
  FID4201                     89.028         0.049         0.053
  FID4202                     87.243         0.048         0.052
  FID4203                      0.000         0.000         0.000
  FID4299                     13.562         0.009         0.010
  FID4372                    660.386         0.484         0.345
  FID4498                    351.435         0.047         0.064
  FID4806                    977.694         0.416         1.243
  FID4807                      0.000         0.000         0.001
  FID4882                      0.001         0.000         0.000
  FID4884                     81.491         0.036         0.066
  FID4914                     53.769         0.033         0.047
  FID4915                      4.029         0.003         0.001
  FID4916                      0.395         0.001         0.001
  FID4917                      0.165         0.000         0.001
  FID5307                     30.311         0.015         0.017
  FID5308                     15.292         0.009         0.008
  FID5312                     27.809         0.014         0.016
  FID5865                    372.837         1.227         0.888
  C9                         182.690         1.078         1.359
  C12                        181.408         1.061         1.336
  C13                        235.527         1.078         1.355
  C14                        153.848         0.709         0.896
  C52                        504.990         0.250         0.294
  C130                        29.123         0.018         0.029
  C131                        28.300         0.017         0.029
  C139                         3.435         0.002         0.002
  C191                       263.898         0.754         0.942
  C193                       265.922         0.734         0.914
  C194                       261.253         0.727         0.911
  C195                       260.583         0.725         0.908
  C196                       247.684         0.748         0.930
  C197                       616.593         0.920         1.164
  C198                       825.070         1.047         1.338
  C199                       829.422         1.046         1.336
  C200                       827.309         1.042         1.331
  C201                       838.923         1.040         1.326
  C202                       850.859         1.043         1.336
  C203                       850.634         1.039         1.331
  C204                       844.915         1.035         1.327
  C205                      1110.003         1.147         1.442
  C206                      1248.147         1.211         1.512
  C207                      1255.703         1.210         1.510
  C208                      1273.940         1.220         1.531
  C209                      1259.812         1.210         1.521
  C210                      1260.838         1.209         1.518
  C211                      1258.676         1.206         1.515
  C212                      1647.528         1.411         1.768
  C213                      1656.052         1.414         1.768
  C214                      1658.207         1.413         1.767
  C215                      1775.886         1.475         1.857
  C216                      1694.521         1.433         1.817
  C217                      1784.459         1.480         1.866
  C218                      2286.451         1.726         2.156
  C219                      2295.981         1.727         2.156
  C220                      2303.834         1.725         2.152
  C221                      2344.495         1.751         2.203
  C222                      2548.344         1.842         2.298
  C223                      2827.921         1.967         2.424
  C224                      2859.356         1.972         2.427
  C225                      2858.193         1.974         2.443
  C226                      2856.222         1.969         2.437
  C227                      2959.267         2.000         2.474
  C228                      2904.507         1.992         2.495
  C229                      3196.911         2.169         2.759
  C230                      3207.082         2.175         2.765
  C231                      3246.130         2.185         2.773
  C232                      3224.968         2.170         2.755
  C233                      3306.964         2.197         2.791
  C234                      3245.669         2.170         2.759
  C235                      3276.214         2.184         2.768
  C236                      3934.030         2.666         3.111
  C237                      3963.006         2.675         3.116
  C238                      4338.784         2.867         3.346
  C239                      4320.999         2.856         3.335
  C240                      4307.806         2.849         3.328
  C241                      4322.406         2.858         3.336
  C242                      4359.155         2.875         3.353
  C243                      4480.070         2.928         3.406
  C244                      4421.637         2.909         3.414
  C245                      4424.683         2.909         3.413
  C246                      5507.197         3.367         4.711
  C247                      5460.787         3.348         4.685
  C248                      5493.960         3.357         4.698
  C249                      5447.173         3.333         4.663
  C250                      5458.000         3.339         4.665
  C251                      5460.421         3.339         4.665
  C252                      5807.980         3.506         4.877
  C253                      5835.647         3.515         4.889
  C254                      5854.413         3.518         4.894
  C255                      5852.299         3.513         4.885
  C256                      6182.528         3.549         4.933
  C257                      6163.698         3.550         4.930
  C258                      6165.818         3.549         4.928
  C259                      6214.614         3.558         4.942
  C260                      6167.387         3.546         4.921
  C261                      6261.019         3.582         4.988
  C262                      6328.808         3.595         4.999
  C263                      6421.562         3.687         5.080
  C264                      6664.130         4.039         5.292
  C265                      6661.694         4.740         5.755
  C266                      6714.251         4.851         5.788
  C267                      6665.235         4.784         5.770
  C268                      6687.393         4.818         5.800
  C269                      6601.953         4.597         5.727
  C270                      6715.911         4.668         5.768
  C271                      6759.882         4.579         5.740
  C272                      6777.784         4.571         5.744
  C273                      6953.335         4.766         5.932
  C274                      6929.338         4.746         5.915
  C275                      6885.843         4.731         5.901
  C276                      6848.882         4.727         5.891
  C277                      6811.411         4.708         5.873
  C278                      6796.594         4.704         5.867
  C279                      6791.831         4.702         5.865
  C280                      6843.209         4.689         5.875
  C281                      6903.807         4.728         5.919
  C282                      6921.734         4.746         5.931
  C283                      6941.059         4.760         5.953
  C284                      6945.689         4.767         5.956
  C285                      6948.443         4.778         5.959
  C286                      6926.193         4.787         5.949
  C287                      6903.826         4.787         5.937
  C288                      6878.035         4.772         5.920
  C289                      6865.800         4.766         5.911
  C290                      6860.810         4.762         5.906
  C291                      6873.750         4.728         5.890
  C292                      7008.786         4.813         5.994
  C293                      6985.959         4.806         5.982
  C294                      6981.239         4.814         5.982
  C295                      6948.420         4.791         5.958
  C296                      6953.415         4.796         5.961
  C297                      6958.666         4.814         5.971
  C298                      6943.505         4.819         5.970
  C299                      6915.390         4.800         5.952
  C300                      6928.788         4.821         5.965
  C301                      6892.068         4.782         5.933
  C302                       182.062         1.073         1.352
  C303                       265.427         0.746         0.931
  C353                       153.208         0.052         0.085
  

  Analysis begun on:  Tue Oct 10 17:35:04 2017
  Analysis ended on:  Tue Oct 10 17:35:19 2017
  Total elapsed time: 00:00:15