
  EPA STORM WATER MANAGEMENT MODEL - VERSION 5.1 (Build 5.1.010)
  --------------------------------------------------------------

  WARNING 04: minimum elevation drop used for Conduit C199
  WARNING 04: minimum elevation drop used for Conduit C200
  WARNING 02: maximum depth increased for Node FID1955
  WARNING 02: maximum depth increased for Node FID1960
  WARNING 02: maximum depth increased for Node FID1965
  WARNING 02: maximum depth increased for Node FID1968
  WARNING 02: maximum depth increased for Node FID2244
  WARNING 02: maximum depth increased for Node FID2442
  WARNING 02: maximum depth increased for Node FID2446
  WARNING 02: maximum depth increased for Node FID5504
  WARNING 02: maximum depth increased for Node FID5527
  WARNING 02: maximum depth increased for Node AFID6926
  WARNING 02: maximum depth increased for Node AFID7376
  
  *********************************************************
  NOTE: The summary statistics displayed in this report are
  based on results found at every computational time step,  
  not just on results from each reporting time step.
  *********************************************************
  
  ****************
  Analysis Options
  ****************
  Flow Units ............... CMS
  Process Models:
    Rainfall/Runoff ........ YES
    RDII ................... NO
    Snowmelt ............... NO
    Groundwater ............ NO
    Flow Routing ........... YES
    Ponding Allowed ........ YES
    Water Quality .......... YES
  Infiltration Method ...... GREEN_AMPT
  Flow Routing Method ...... DYNWAVE
  Starting Date ............ MAY-06-2016 15:00:00
  Ending Date .............. MAY-07-2016 00:00:00
  Antecedent Dry Days ...... 0.0
  Report Time Step ......... 00:01:00
  Wet Time Step ............ 00:01:00
  Dry Time Step ............ 01:00:00
  Routing Time Step ........ 5.00 sec
  Variable Time Step ....... YES
  Maximum Trials ........... 8
  Number of Threads ........ 3
  Head Tolerance ........... 0.001500 m
  
  
  **************************        Volume         Depth
  Runoff Quantity Continuity     hectare-m            mm
  **************************     ---------       -------
  Total Precipitation ......         2.583         6.709
  Evaporation Loss .........         0.000         0.000
  Infiltration Loss ........         1.263         3.281
  Surface Runoff ...........         0.994         2.580
  Final Storage ............         0.328         0.853
  Continuity Error (%) .....        -0.068
  
  
  **************************           TSS            TP           TDP
  Runoff Quality Continuity             kg            kg            kg
  **************************    ----------    ----------    ----------
  Initial Buildup ..........         0.000         0.000         0.000
  Surface Buildup ..........      8391.990         5.545        11.820
  Wet Deposition ...........         0.000         0.000         0.000
  Sweeping Removal .........         0.000         0.000         0.000
  Infiltration Loss ........         0.000         0.000         0.000
  BMP Removal ..............         0.476         0.000         0.001
  Surface Runoff ...........      4760.489         3.421         5.660
  Remaining Buildup ........      3631.025         2.124         6.160
  Continuity Error (%) .....         0.000         0.000         0.000
  
  
  **************************        Volume        Volume
  Flow Routing Continuity        hectare-m      10^6 ltr
  **************************     ---------     ---------
  Dry Weather Inflow .......         0.000         0.000
  Wet Weather Inflow .......         0.993         9.935
  Groundwater Inflow .......         0.000         0.000
  RDII Inflow ..............         0.000         0.000
  External Inflow ..........         1.384        13.843
  External Outflow .........         1.848        18.476
  Flooding Loss ............         0.000         0.000
  Evaporation Loss .........         0.000         0.000
  Exfiltration Loss ........         0.000         0.000
  Initial Stored Volume ....         0.000         0.000
  Final Stored Volume ......         0.536         5.357
  Continuity Error (%) .....        -0.232
  
  
  **************************           TSS            TP           TDP
  Quality Routing Continuity            kg            kg            kg
  **************************    ----------    ----------    ----------
  Dry Weather Inflow .......         0.000         0.000         0.000
  Wet Weather Inflow .......      4760.271         3.418         5.654
  Groundwater Inflow .......         0.000         0.000         0.000
  RDII Inflow ..............         0.000         0.000         0.000
  External Inflow ..........       137.985         1.039         1.284
  External Outflow .........      4802.459         4.079         6.466
  Flooding Loss ............         0.000         0.000         0.000
  Exfiltration Loss ........         0.000         0.000         0.000
  Mass Reacted .............         0.000         0.000         0.000
  Initial Stored Mass ......         0.000         0.000         0.000
  Final Stored Mass ........        39.158         0.351         0.495
  Continuity Error (%) .....         1.156         0.582        -0.342
  
  
  *************************
  Highest Continuity Errors
  *************************
  Node FID2824 (1.75%)
  Node J72 (1.34%)
  Node FID2449 (1.23%)
  Node J19 (1.20%)
  Node J81 (1.17%)
  
  
  ***************************
  Time-Step Critical Elements
  ***************************
  Link C241 (92.64%)
  Link C14 (6.53%)
  
  
  ********************************
  Highest Flow Instability Indexes
  ********************************
  All links are stable.
  
  
  *************************
  Routing Time Step Summary
  *************************
  Minimum Time Step           :     0.41 sec
  Average Time Step           :     0.93 sec
  Maximum Time Step           :     5.00 sec
  Percent in Steady State     :     0.00
  Average Iterations per Step :     2.01
  Percent Not Converging      :     0.03
  
  
  ***************************
  Subcatchment Runoff Summary
  ***************************
  
  --------------------------------------------------------------------------------------------------------
                            Total      Total      Total      Total      Total       Total     Peak  Runoff
                           Precip      Runon       Evap      Infil     Runoff      Runoff   Runoff   Coeff
  Subcatchment                 mm         mm         mm         mm         mm    10^6 ltr      CMS
  --------------------------------------------------------------------------------------------------------
  S0                         5.84       0.00       0.00       5.06       0.57        0.00     0.00   0.097
  S1                         5.84       0.00       0.00       2.64       2.33        0.23     0.07   0.399
  S2                         6.35       0.00       0.00       2.00       3.25        0.56     0.19   0.512
  S3                         5.84       0.00       0.00       3.85       1.46        0.05     0.04   0.250
  S4                         5.84       0.00       0.00       2.83       2.20        0.22     0.18   0.376
  S6                         6.35       0.00       0.00       1.11       3.92        0.07     0.02   0.618
  S7                         6.35       0.00       0.00       1.45       3.29        1.29     0.37   0.518
  S8                         6.35       0.00       0.00       1.11       3.93        0.00     0.00   0.619
  S9                         6.35       0.00       0.00       1.82       3.40        0.00     0.00   0.536
  S10                        6.35       0.00       0.00       1.93       3.32        0.01     0.00   0.522
  S11                        6.35       0.00       0.00       5.01       1.01        0.00     0.00   0.159
  S12                        6.35       0.00       0.00       2.16       3.15        0.00     0.00   0.496
  S13                        6.35       0.00       0.00       2.41       2.95        0.22     0.07   0.465
  S14                        6.35       0.00       0.00       4.47       1.41        0.01     0.00   0.222
  S16                        6.35       0.00       0.00       2.05       1.71        0.10     0.02   0.269
  S17                        6.35       0.00       0.00       2.10       3.17        0.61     0.20   0.500
  S18                        6.35       0.00       0.00       1.46       3.68        0.00     0.00   0.579
  S19                        6.35       0.00       0.00       3.50       2.13        0.05     0.02   0.336
  S20                        6.35       0.00       0.00       2.26       3.07        0.02     0.01   0.483
  S21                        6.35       0.00       0.00       4.56       1.72        0.92     0.21   0.270
  S22                        6.35       0.00       0.00       1.75       3.45        0.00     0.00   0.543
  S23                        6.35       0.00       0.00       3.86       1.87        0.03     0.01   0.295
  S24                        6.35       0.00       0.00       3.65       2.03        0.04     0.01   0.319
  S25                        6.35       0.00       0.00       2.47       2.90        0.04     0.01   0.457
  S27                        6.35       0.00       0.00       2.82       2.65        0.01     0.01   0.418
  S28                        5.84       0.00       0.00       5.83       0.01        0.00     0.00   0.001
  S29                        5.84       0.00       0.00       5.80       0.03        0.00     0.00   0.006
  S30                        6.35       0.00       0.00       6.33       0.02        0.00     0.00   0.003
  S31                        6.35       0.00       0.00       6.34       0.01        0.00     0.00   0.001
  S32                        6.35       0.00       0.00       4.70       1.25        0.01     0.00   0.197
  S33                        6.35       0.00       0.00       1.58       3.58        0.04     0.02   0.563
  S34                        6.35       0.00       0.00       3.04       2.22        0.78     0.25   0.350
  S35                        6.35       0.00       0.00       3.63       2.05        0.01     0.00   0.322
  S36                        6.35       0.00       0.00       5.06       0.97        0.01     0.01   0.152
  S37                        6.35       0.00       0.00       1.90       3.34        0.02     0.01   0.526
  S39                        6.35       0.00       0.00       3.78       1.93        0.29     0.10   0.304
  S40                        6.35       0.00       0.00       4.44       1.43        0.03     0.01   0.225
  S41                        6.35       0.00       0.00       2.24       3.08        0.42     0.14   0.485
  S42                        6.35       0.00       0.00       2.63       2.79        0.28     0.10   0.439
  S43                        6.35       0.00       0.00       4.76       1.20        0.02     0.01   0.188
  S44                        6.35       0.00       0.00       2.70       2.73        0.62     0.21   0.430
  S45                        8.13       0.00       0.00       4.58       2.92        0.00     0.00   0.359
  S47                        8.13       0.00       0.00       3.51       3.76        0.16     0.14   0.463
  S48                        8.13       0.00       0.00       4.16       3.27        0.01     0.01   0.402
  S49                        8.13       0.00       0.00       3.66       3.60        0.67     0.49   0.443
  S51                        8.13       0.00       0.00       6.99       0.94        0.01     0.01   0.116
  S52                        8.13       0.00       0.00       3.98       3.37        0.23     0.20   0.415
  S53                        8.13       0.00       0.00       3.83       3.47        0.48     0.38   0.427
  S54                        8.13       0.00       0.00       4.88       2.61        0.25     0.07   0.321
  S55                        8.13       0.00       0.00       3.99       3.32        0.54     0.16   0.409
  S56                        8.13       0.00       0.00       5.90       1.80        0.00     0.00   0.222
  S57                        8.13       0.00       0.00       3.46       3.75        0.04     0.01   0.462
  S58                        8.13       0.00       0.00       4.32       3.06        0.12     0.04   0.376
  S59                        8.13       0.00       0.00       7.00       0.90        0.02     0.01   0.111
  S60                        8.13       0.00       0.00       5.80       1.87        0.05     0.01   0.230
  S61                        8.13       0.00       0.00       7.16       0.78        0.01     0.00   0.096
  S62                        8.13       0.00       0.00       6.67       1.19        0.03     0.03   0.146
  S63                        6.35       0.00       0.00       5.34       0.76        0.01     0.01   0.119
  S64                        6.35       0.00       0.00       2.89       2.60        0.04     0.02   0.409
  S65                        6.35       0.00       0.00       4.24       1.58        0.27     0.09   0.248
  
  
  ****************************
  Subcatchment Washoff Summary
  ****************************
  
  --------------------------------------------------------------
                                 TSS            TP           TDP
  Subcatchment                    kg            kg            kg
  --------------------------------------------------------------
  S0                           0.366         0.000         0.001
  S1                          33.742         0.011         0.113
  S2                          99.155         0.064         0.267
  S3                          16.108         0.011         0.034
  S4                          47.932         0.035         0.136
  S6                           5.071         0.001         0.014
  S7                         451.522         1.159         0.272
  S8                           0.264         0.000         0.001
  S9                           0.305         0.000         0.001
  S10                          3.189         0.004         0.008
  S11                          0.311         0.000         0.001
  S12                          0.175         0.000         0.000
  S13                         24.823         0.010         0.065
  S14                          8.134         0.004         0.019
  S16                         51.748         0.062         0.141
  S17                        120.298         0.071         0.324
  S18                          0.317         0.000         0.001
  S19                         24.281         0.010         0.062
  S20                          6.638         0.006         0.017
  S21                       1333.082         0.970         0.225
  S22                          2.088         0.002         0.006
  S23                         20.537         0.002         0.045
  S24                         12.261         0.010         0.032
  S25                         14.198         0.001         0.034
  S27                          7.382         0.006         0.018
  S28                          0.000         0.000         0.000
  S29                          0.000         0.000         0.000
  S30                          0.000         0.000         0.000
  S31                          0.000         0.000         0.000
  S32                          4.361         0.000         0.010
  S33                         11.121         0.011         0.030
  S34                       1048.496         0.237         0.133
  S35                          4.396         0.003         0.011
  S36                         11.813         0.000         0.028
  S37                          6.901         0.004         0.017
  S39                        130.514         0.049         0.323
  S40                         26.806         0.003         0.061
  S41                         88.390         0.072         0.238
  S42                         73.655         0.050         0.211
  S43                         21.507         0.000         0.050
  S44                        171.691         0.100         0.474
  S45                          0.579         0.001         0.001
  S47                         37.714         0.027         0.094
  S48                          3.338         0.003         0.009
  S49                        148.779         0.083         0.390
  S51                         11.826         0.000         0.025
  S52                         49.982         0.035         0.134
  S53                         81.513         0.067         0.226
  S54                        101.903         0.043         0.255
  S55                        140.023         0.064         0.367
  S56                          0.046         0.000         0.000
  S57                          7.523         0.000         0.020
  S58                         30.474         0.025         0.084
  S59                         20.355         0.013         0.043
  S60                         31.840         0.003         0.070
  S61                          9.986         0.003         0.020
  S62                         28.968         0.000         0.063
  S63                         13.190         0.000         0.026
  S64                         16.751         0.000         0.037
  S65                        142.122         0.083         0.373
  --------------------------------------------------------------
  System                    4760.489         3.421         5.660
  
  
  ******************
  Node Depth Summary
  ******************
  
  ---------------------------------------------------------------------------------
                                 Average  Maximum  Maximum  Time of Max    Reported
                                   Depth    Depth      HGL   Occurrence   Max Depth
  Node                 Type       Meters   Meters   Meters  days hr:min      Meters
  ---------------------------------------------------------------------------------
  FID1936              JUNCTION     0.15     0.41  1376.71     0  04:05        0.13
  FID1955              JUNCTION     0.17     0.34  1376.26     0  04:15        0.10
  FID1960              JUNCTION     0.15     0.28  1376.14     0  04:15        0.09
  FID1965              JUNCTION     0.15     0.27  1376.57     0  04:15        0.08
  FID1968              JUNCTION     0.14     0.21  1376.61     0  04:14        0.07
  FID2239              JUNCTION     0.15     0.30  1374.81     0  03:30        0.09
  FID2241              JUNCTION     0.13     0.20  1373.33     0  04:05        0.06
  FID2242              JUNCTION     0.13     0.22  1374.26     0  04:05        0.07
  FID2244              JUNCTION     0.13     0.20  1374.56     0  03:30        0.06
  FID2440              JUNCTION     0.38     0.62  1374.87     0  04:10        0.19
  FID2442              JUNCTION     0.00     0.00  1375.27     0  00:00        0.00
  FID2446              JUNCTION     0.16     0.61  1376.41     0  04:05        0.19
  FID2447              JUNCTION     0.15     0.50  1376.20     0  04:05        0.15
  FID2455              JUNCTION     0.29     0.57  1374.56     0  04:20        0.17
  FID2711              JUNCTION     0.13     0.25  1370.43     0  03:50        0.08
  FID2719              JUNCTION     0.17     0.91  1371.01     0  03:48        0.28
  FID2720              JUNCTION     0.16     0.40  1370.60     0  04:05        0.12
  FID2824              JUNCTION     0.12     0.18  1371.46     0  03:55        0.06
  FID2827              JUNCTION     0.13     0.24  1371.54     0  04:10        0.07
  FID2828              JUNCTION     0.13     0.23  1371.55     0  04:10        0.07
  FID2832              JUNCTION     0.16     0.32  1370.92     0  04:10        0.10
  FID2833              JUNCTION     0.21     0.49  1371.11     0  04:10        0.15
  FID2839              JUNCTION     0.19     0.37  1371.57     0  04:20        0.11
  FID2873              JUNCTION     0.16     0.31  1371.01     0  03:55        0.09
  FID2964              JUNCTION     0.17     0.34  1371.12     0  04:36        0.10
  FID2965              JUNCTION     0.42     0.86  1371.12     0  04:36        0.26
  FID4584              JUNCTION     0.13     0.31  1371.65     0  04:10        0.09
  FID5068              JUNCTION     0.13     0.20  1375.58     0  03:30        0.06
  FID5072              JUNCTION     0.47     0.79  1374.09     0  04:20        0.24
  FID5140              JUNCTION     0.16     0.32  1373.54     0  04:05        0.10
  FID5435              JUNCTION     0.16     0.26  1373.01     0  04:05        0.08
  FID5437              JUNCTION     0.12     0.18  1373.13     0  03:30        0.05
  FID5503              JUNCTION     0.12     0.16  1371.49     0  03:51        0.05
  FID5504              JUNCTION     0.15     0.26  1371.62     0  04:10        0.08
  FID5527              JUNCTION     0.14     0.22  1372.72     0  04:10        0.07
  FID5568              JUNCTION     0.46     0.83  1373.22     0  04:23        0.25
  FID5784              JUNCTION     0.47     0.84  1372.83     0  04:25        0.26
  FID5785              JUNCTION     0.14     0.25  1374.68     0  04:05        0.08
  AFID6926             JUNCTION     0.15     0.26  1370.06     0  04:15        0.08
  AFID7360             JUNCTION     0.47     0.94  1371.07     0  04:36        0.29
  AFID7363             JUNCTION     0.46     0.92  1371.09     0  04:36        0.28
  AFID7376             JUNCTION     0.19     0.42  1371.65     0  04:10        0.13
  AFID7377             JUNCTION     0.39     0.74  1371.42     0  04:33        0.22
  AFID7705             JUNCTION     0.48     0.59  1375.56     0  04:15        0.18
  AFID7706             JUNCTION     0.54     0.64  1375.56     0  04:15        0.20
  AFID7792             JUNCTION     0.18     0.40  1375.20     0  04:05        0.12
  AFID8223             JUNCTION     0.47     0.84  1372.84     0  04:25        0.26
  J1                   JUNCTION     0.70     0.73  1375.72     0  04:15        0.22
  FID4901              JUNCTION     0.43     0.52  1375.59     0  04:15        0.16
  J9                   JUNCTION     0.59     0.62  1375.71     0  04:15        0.19
  J11                  JUNCTION     0.44     0.47  1375.68     0  04:16        0.14
  J12                  JUNCTION     0.43     0.50  1375.62     0  04:15        0.15
  J13                  JUNCTION     0.43     0.52  1375.60     0  04:15        0.16
  FID4902              JUNCTION     0.45     0.54  1375.59     0  04:15        0.16
  J14                  JUNCTION     0.36     0.52  1375.44     0  04:05        0.16
  J15                  JUNCTION     0.34     0.55  1375.21     0  04:06        0.17
  J16                  JUNCTION     0.35     0.55  1375.19     0  04:06        0.17
  FID2449              JUNCTION     0.38     0.62  1374.94     0  04:10        0.19
  J17                  JUNCTION     0.28     0.57  1374.54     0  04:20        0.17
  J19                  JUNCTION     0.41     0.74  1374.29     0  04:22        0.23
  FID5069              JUNCTION     0.49     0.82  1374.08     0  04:21        0.25
  FID5139              JUNCTION     0.47     0.84  1373.19     0  04:22        0.26
  J24                  JUNCTION     0.47     0.84  1373.20     0  04:23        0.26
  FID4984              JUNCTION     0.49     0.86  1372.82     0  04:25        0.26
  FID2669              JUNCTION     0.35     0.72  1369.16     0  04:38        0.22
  FID2712              JUNCTION     0.37     0.77  1369.96     0  04:36        0.24
  FID2718              JUNCTION     0.38     0.78  1370.03     0  04:36        0.24
  FID2838              JUNCTION     0.55     1.02  1370.96     0  04:35        0.31
  FID2825              JUNCTION     0.60     1.09  1371.00     0  04:35        0.33
  FID2823              JUNCTION     0.64     1.15  1371.02     0  04:36        0.35
  FID5505              JUNCTION     0.54     1.02  1371.05     0  04:36        0.31
  FID5436              JUNCTION     0.50     0.86  1372.18     0  04:30        0.26
  FID5438              JUNCTION     0.43     0.79  1372.22     0  04:30        0.24
  J49                  JUNCTION     0.47     0.56  1375.58     0  04:15        0.17
  J50                  JUNCTION     0.51     0.61  1375.57     0  04:15        0.18
  J51                  JUNCTION     0.56     0.67  1375.56     0  04:15        0.20
  J52                  JUNCTION     0.57     0.68  1375.56     0  04:15        0.21
  J53                  JUNCTION     0.36     0.52  1375.44     0  04:05        0.16
  J54                  JUNCTION     0.37     0.50  1375.46     0  04:05        0.15
  J55                  JUNCTION     0.41     0.52  1375.54     0  04:15        0.16
  J56                  JUNCTION     0.39     0.50  1375.52     0  04:09        0.15
  J57                  JUNCTION     0.37     0.48  1375.50     0  04:07        0.15
  J58                  JUNCTION     0.37     0.49  1375.47     0  04:06        0.15
  FID1935              JUNCTION     0.37     0.53  1375.42     0  04:05        0.16
  J59                  JUNCTION     0.37     0.53  1375.40     0  04:05        0.16
  J60                  JUNCTION     0.36     0.52  1375.35     0  04:06        0.16
  J61                  JUNCTION     0.34     0.52  1375.28     0  04:07        0.16
  J62                  JUNCTION     0.33     0.51  1375.27     0  04:07        0.16
  J63                  JUNCTION     0.35     0.54  1375.23     0  04:06        0.17
  J64                  JUNCTION     0.33     0.54  1375.16     0  04:07        0.16
  J65                  JUNCTION     0.30     0.52  1375.10     0  04:08        0.16
  J66                  JUNCTION     0.38     0.61  1374.83     0  04:10        0.19
  J67                  JUNCTION     0.38     0.61  1374.76     0  04:11        0.19
  J68                  JUNCTION     0.36     0.59  1374.66     0  04:12        0.18
  J69                  JUNCTION     0.49     0.79  1374.52     0  04:20        0.24
  J70                  JUNCTION     0.47     0.77  1374.42     0  04:21        0.24
  J71                  JUNCTION     0.45     0.76  1374.36     0  04:21        0.23
  J72                  JUNCTION     0.48     0.80  1374.15     0  04:22        0.24
  J73                  JUNCTION     0.49     0.82  1374.04     0  04:21        0.25
  J74                  JUNCTION     0.50     0.82  1373.80     0  04:24        0.25
  J75                  JUNCTION     0.50     0.82  1373.66     0  04:26        0.25
  J76                  JUNCTION     0.47     0.84  1373.18     0  04:22        0.26
  J77                  JUNCTION     0.47     0.84  1373.05     0  04:23        0.26
  J78                  JUNCTION     0.47     0.84  1372.91     0  04:24        0.26
  J79                  JUNCTION     0.47     0.84  1372.85     0  04:24        0.26
  J80                  JUNCTION     0.40     0.76  1372.25     0  04:31        0.23
  J81                  JUNCTION     0.48     0.83  1371.82     0  04:33        0.25
  J82                  JUNCTION     0.48     0.82  1371.75     0  04:34        0.25
  J83                  JUNCTION     0.40     0.77  1371.57     0  04:34        0.23
  J84                  JUNCTION     0.37     0.70  1371.34     0  04:34        0.21
  J85                  JUNCTION     0.37     0.73  1371.25     0  04:35        0.22
  J86                  JUNCTION     0.39     0.79  1371.17     0  04:36        0.24
  J87                  JUNCTION     0.45     0.91  1371.10     0  04:36        0.28
  J88                  JUNCTION     0.52     1.00  1371.05     0  04:36        0.31
  J89                  JUNCTION     0.56     1.05  1371.04     0  04:36        0.32
  J90                  JUNCTION     0.52     0.99  1370.94     0  04:35        0.30
  J91                  JUNCTION     0.52     0.99  1370.88     0  04:35        0.30
  J92                  JUNCTION     0.52     0.99  1370.82     0  04:35        0.30
  J93                  JUNCTION     0.52     0.99  1370.71     0  04:35        0.30
  J94                  JUNCTION     0.52     0.99  1370.64     0  04:35        0.30
  J95                  JUNCTION     0.52     0.98  1370.62     0  04:35        0.30
  J96                  JUNCTION     0.51     0.98  1370.53     0  04:36        0.30
  J97                  JUNCTION     0.50     0.97  1370.46     0  04:36        0.29
  J98                  JUNCTION     0.50     0.95  1370.40     0  04:36        0.29
  J99                  JUNCTION     0.48     0.94  1370.33     0  04:37        0.29
  J100                 JUNCTION     0.47     0.92  1370.28     0  04:37        0.28
  J101                 JUNCTION     0.45     0.89  1370.21     0  04:37        0.27
  J102                 JUNCTION     0.38     0.79  1370.06     0  04:36        0.24
  J103                 JUNCTION     0.38     0.78  1370.00     0  04:36        0.24
  J104                 JUNCTION     0.37     0.76  1369.92     0  04:36        0.23
  J105                 JUNCTION     0.36     0.75  1369.87     0  04:36        0.23
  J106                 JUNCTION     0.35     0.72  1369.79     0  04:36        0.22
  J107                 JUNCTION     0.35     0.72  1369.65     0  04:37        0.22
  J108                 JUNCTION     0.35     0.72  1369.51     0  04:37        0.22
  J109                 JUNCTION     0.35     0.72  1369.40     0  04:38        0.22
  J110                 JUNCTION     0.35     0.72  1369.30     0  04:38        0.22
  J111                 JUNCTION     0.35     0.72  1369.20     0  04:38        0.22
  J112                 JUNCTION     0.35     0.72  1369.05     0  04:39        0.22
  J113                 JUNCTION     0.35     0.72  1368.95     0  04:39        0.22
  J114                 JUNCTION     0.35     0.72  1368.83     0  04:39        0.22
  J115                 JUNCTION     0.35     0.72  1368.77     0  04:40        0.22
  J116                 JUNCTION     0.35     0.72  1368.70     0  04:40        0.22
  J117                 JUNCTION     0.35     0.72  1368.60     0  04:40        0.22
  J118                 JUNCTION     0.35     0.71  1368.48     0  04:40        0.22
  J119                 JUNCTION     0.35     0.71  1368.41     0  04:40        0.22
  J120                 JUNCTION     0.37     0.69  1368.29     0  04:40        0.21
  FID2451              JUNCTION     0.38     0.61  1374.89     0  04:10        0.19
  J121                 JUNCTION     0.38     0.74  1371.49     0  04:33        0.23
  J122                 JUNCTION     0.38     0.74  1371.46     0  04:33        0.23
  FID3706              JUNCTION     0.52     0.99  1370.73     0  04:35        0.30
  FID2831              JUNCTION     0.52     0.98  1370.61     0  04:35        0.30
  FID2689              OUTFALL      0.25     0.51  1368.01     0  04:41        0.16
  
  
  *******************
  Node Inflow Summary
  *******************
  
  -------------------------------------------------------------------------------------------------
                                  Maximum  Maximum                  Lateral       Total        Flow
                                  Lateral    Total  Time of Max      Inflow      Inflow     Balance
                                   Inflow   Inflow   Occurrence      Volume      Volume       Error
  Node                 Type           CMS      CMS  days hr:min    10^6 ltr    10^6 ltr     Percent
  -------------------------------------------------------------------------------------------------
  FID1936              JUNCTION     0.196    0.196     0  04:05       0.226       0.226       0.072
  FID1955              JUNCTION     0.162    0.162     0  04:15       0.542       0.542       0.031
  FID1960              JUNCTION     0.074    0.074     0  04:15       0.247       0.247       0.068
  FID1965              JUNCTION     0.037    0.037     0  04:15       0.124       0.124       0.140
  FID1968              JUNCTION     0.011    0.011     0  04:15      0.0375      0.0375       0.467
  FID2239              JUNCTION     0.014    0.014     0  03:30      0.0389      0.0389       1.419
  FID2241              JUNCTION     0.000    0.012     0  04:05           0      0.0365       0.473
  FID2242              JUNCTION     0.013    0.013     0  04:05      0.0367      0.0367       0.497
  FID2244              JUNCTION     0.007    0.007     0  03:30      0.0142      0.0142       1.240
  FID2440              JUNCTION     0.000    1.276     0  04:08           0        15.3       0.227
  FID2442              JUNCTION     0.000    0.000     0  00:00           0           0       0.000 ltr
  FID2446              JUNCTION     0.141    0.141     0  04:05        0.16        0.16       1.034
  FID2447              JUNCTION     0.000    0.136     0  04:05           0       0.159      -0.110
  FID2455              JUNCTION     0.097    1.319     0  04:11       0.283        15.4       0.209
  FID2711              JUNCTION     0.000    0.042     0  04:05           0       0.047       0.499
  FID2719              JUNCTION     0.179    0.179     0  04:05       0.219       0.219       0.223
  FID2720              JUNCTION     0.043    0.043     0  04:05      0.0472      0.0472       0.443
  FID2824              JUNCTION     0.000    0.004     0  03:55    0.000646     0.00967       1.783
  FID2827              JUNCTION     0.000    0.003     0  03:55    0.000732     0.00911       1.051
  FID2828              JUNCTION     0.003    0.003     0  04:10     0.00864     0.00864       3.065
  FID2832              JUNCTION     0.000    0.188     0  04:10           0       0.561       0.053
  FID2833              JUNCTION     0.189    0.189     0  04:10       0.561       0.561       0.044
  FID2839              JUNCTION     0.368    0.368     0  04:20        1.29        1.29       0.031
  FID2873              JUNCTION     0.025    0.025     0  04:10      0.0736      0.0736       0.822
  FID2964              JUNCTION     0.023    0.023     0  04:10      0.0952      0.0952       0.167
  FID2965              JUNCTION     0.000    1.828     0  04:34           0        16.9       0.270
  FID4584              JUNCTION     0.000    0.002     0  03:32           0    0.000909      17.664
  FID5068              JUNCTION     0.008    0.008     0  03:30      0.0175      0.0175       1.002
  FID5072              JUNCTION     0.099    1.446     0  04:20       0.286        15.5       0.198
  FID5140              JUNCTION     0.254    0.254     0  04:05       0.785       0.785       0.014
  FID5435              JUNCTION     0.210    0.210     0  04:05       0.919       0.919       0.020
  FID5437              JUNCTION     0.002    0.002     0  03:30     0.00476     0.00476       3.794
  FID5503              JUNCTION     0.000    0.000     0  03:27    0.000692    0.000692      33.384
  FID5504              JUNCTION     0.075    0.075     0  04:10       0.223       0.223       0.128
  FID5527              JUNCTION     0.016    0.016     0  04:10       0.046       0.046       0.380
  FID5568              JUNCTION     0.004    1.421     0  04:26     0.00682        15.2       0.698
  FID5784              JUNCTION     0.000    1.644     0  04:22           0        16.1       0.096
  FID5785              JUNCTION     0.000    0.013     0  04:05           0      0.0383       0.310
  AFID6926             JUNCTION     0.075    0.075     0  04:15       0.228       0.228       0.077
  AFID7360             JUNCTION     0.000    1.827     0  04:36    0.000417        16.8       0.197
  AFID7363             JUNCTION     0.000    1.827     0  04:36           0        16.8       0.097
  AFID7376             JUNCTION     0.202    0.202     0  04:10        0.61        0.61      -0.003
  AFID7377             JUNCTION     0.000    1.835     0  04:30           0          17       0.106
  AFID7705             JUNCTION     0.000    0.725     0  04:15           0        14.1       0.268
  AFID7706             JUNCTION     0.000    0.652     0  04:16           0        13.9       0.259
  AFID7792             JUNCTION     0.207    0.207     0  04:05       0.617       0.617       0.024
  AFID8223             JUNCTION     0.000    1.635     0  04:23           0          16       0.022
  J1                   JUNCTION     0.667    0.667     0  04:15          21          21       0.151
  FID4901              JUNCTION     0.000    0.486     0  04:19           0        13.8       0.234
  J9                   JUNCTION     0.000    0.667     0  04:15           0          21       0.303
  J11                  JUNCTION     0.000    0.666     0  04:15           0        20.9       0.523
  J12                  JUNCTION     0.007    0.672     0  04:20      0.0229        20.8       0.571
  J13                  JUNCTION    -0.220    0.680     0  04:20       -7.13        20.7      -0.191
  FID4902              JUNCTION     0.000    0.495     0  04:15           0        13.8       0.367
  J14                  JUNCTION     0.377    0.905     0  04:05       0.484        14.3       0.192
  J15                  JUNCTION     0.490    1.258     0  04:05       0.674        14.9       0.157
  J16                  JUNCTION     0.008    1.242     0  04:05     0.00942        14.9       0.158
  FID2449              JUNCTION     0.001    1.141     0  04:08     0.00136        14.7       1.249
  J17                  JUNCTION     0.144    1.401     0  04:11       0.419        15.8       0.100
  J19                  JUNCTION     0.019    1.386     0  04:21      0.0365        15.6       1.218
  FID5069              JUNCTION     0.000    1.448     0  04:20           0        15.5       0.178
  FID5139              JUNCTION     0.000    1.600     0  04:21           0        15.9       0.051
  J24                  JUNCTION     0.018    1.432     0  04:25      0.0415        15.1       0.079
  FID4984              JUNCTION     0.000    1.649     0  04:22           0        16.1       0.793
  FID2669              JUNCTION     0.000    2.174     0  04:38           0        18.6       0.063
  FID2712              JUNCTION     0.000    2.152     0  04:35           0        18.6       0.079
  FID2718              JUNCTION     0.000    2.140     0  04:35           0        18.5       0.056
  FID2838              JUNCTION     0.000    2.047     0  04:33           0        18.1       0.168
  FID2825              JUNCTION     0.000    1.848     0  04:38           0        16.8       0.305
  FID2823              JUNCTION     0.000    1.845     0  04:37           0        16.9       0.469
  FID5505              JUNCTION     0.000    1.842     0  04:37           0          17       0.125
  FID5436              JUNCTION     0.000    1.774     0  04:30           0        16.8       0.777
  FID5438              JUNCTION     0.000    1.640     0  04:31           0        15.9       0.144
  J49                  JUNCTION     0.000    0.498     0  04:19           0        13.7       0.587
  J50                  JUNCTION     0.000    0.505     0  04:19    0.000277        13.6       1.029
  J51                  JUNCTION     0.000    0.515     0  04:18           0        13.5       0.830
  J52                  JUNCTION     0.000    0.529     0  04:33           0        13.4       0.246
  J53                  JUNCTION     0.000    0.742     0  04:15           0        13.8       0.209
  J54                  JUNCTION     0.000    0.737     0  04:15           0        13.9       0.310
  J55                  JUNCTION     0.000    0.726     0  04:15           0        14.1       0.297
  J56                  JUNCTION     0.000    0.726     0  04:15           0          14       0.318
  J57                  JUNCTION     0.000    0.728     0  04:15           0          14       0.397
  J58                  JUNCTION     0.002    0.732     0  04:15     0.00674        13.9       0.424
  FID1935              JUNCTION     0.000    1.082     0  04:05           0        14.5       0.246
  J59                  JUNCTION     0.000    1.059     0  04:05           0        14.4       0.341
  J60                  JUNCTION     0.008    1.023     0  04:05     0.00948        14.4       0.535
  J61                  JUNCTION     0.000    0.954     0  04:06           0        14.3       0.359
  J62                  JUNCTION     0.000    0.943     0  04:07           0        14.3       0.161
  J63                  JUNCTION     0.000    0.946     0  04:07           0        14.3       0.164
  J64                  JUNCTION     0.000    1.224     0  04:05           0        14.9       0.164
  J65                  JUNCTION     0.026    1.224     0  04:05      0.0302        14.9       0.950
  J66                  JUNCTION     0.000    1.272     0  04:09           0        15.3       0.287
  J67                  JUNCTION     0.000    1.267     0  04:10           0        15.2       0.428
  J68                  JUNCTION     0.011    1.265     0  04:10      0.0231        15.2       0.464
  J69                  JUNCTION     0.000    1.399     0  04:11           0        15.8       0.449
  J70                  JUNCTION     0.006    1.395     0  04:20      0.0116        15.7       0.575
  J71                  JUNCTION     0.000    1.387     0  04:21           0        15.6       0.414
  J72                  JUNCTION     0.011    1.381     0  04:22      0.0314        15.4       1.357
  J73                  JUNCTION     0.000    1.446     0  04:20           0        15.5       0.393
  J74                  JUNCTION     0.000    1.438     0  04:20           0        15.4       0.579
  J75                  JUNCTION     0.006    1.429     0  04:22      0.0121        15.3       0.897
  J76                  JUNCTION     0.000    1.599     0  04:22           0        15.9       0.212
  J77                  JUNCTION     0.089    1.654     0  04:20       0.266        16.1       0.389
  J78                  JUNCTION     0.000    1.644     0  04:21           0        16.1       0.292
  J79                  JUNCTION     0.000    1.637     0  04:23           0          16       0.107
  J80                  JUNCTION     0.014    1.643     0  04:26      0.0307          16       0.652
  J81                  JUNCTION     0.002    1.777     0  04:30     0.00538        16.7       1.182
  J82                  JUNCTION     0.000    1.765     0  04:32           0        16.5       0.467
  J83                  JUNCTION     0.000    1.763     0  04:34           0        16.4       0.347
  J84                  JUNCTION     0.000    1.834     0  04:30           0        16.9       0.184
  J85                  JUNCTION     0.000    1.830     0  04:31           0        16.9       0.343
  J86                  JUNCTION     0.000    1.824     0  04:33           0        16.9       0.354
  J87                  JUNCTION     0.003    1.827     0  04:36     0.00827        16.9       0.150
  J88                  JUNCTION     0.000    1.828     0  04:37           0        16.8       0.228
  J89                  JUNCTION     0.000    1.843     0  04:37           0        16.9       0.344
  J90                  JUNCTION     0.000    2.046     0  04:34           0          18       0.118
  J91                  JUNCTION     0.000    2.046     0  04:34           0          18       0.165
  J92                  JUNCTION     0.000    2.045     0  04:35    3.47e-06          18       0.205
  J93                  JUNCTION     0.000    2.050     0  04:35           0          18       0.109
  J94                  JUNCTION     0.000    2.050     0  04:36    6.13e-06          18       0.126
  J95                  JUNCTION     0.000    2.051     0  04:36           0        17.9       0.048
  J96                  JUNCTION     0.000    2.095     0  04:34           0        18.5       0.176
  J97                  JUNCTION     0.000    2.093     0  04:35           0        18.4       0.150
  J98                  JUNCTION     0.000    2.092     0  04:35           0        18.4       0.132
  J99                  JUNCTION     0.000    2.091     0  04:36           0        18.4       0.113
  J100                 JUNCTION     0.000    2.090     0  04:36           0        18.4       0.095
  J101                 JUNCTION     0.000    2.090     0  04:37           0        18.3       0.110
  J102                 JUNCTION     0.000    2.091     0  04:37           0        18.3       0.086
  J103                 JUNCTION     0.000    2.139     0  04:35           0        18.5       0.064
  J104                 JUNCTION     0.000    2.150     0  04:35           0        18.5       0.084
  J105                 JUNCTION     0.000    2.148     0  04:35           0        18.5       0.105
  J106                 JUNCTION     0.000    2.146     0  04:36           0        18.5       0.117
  J107                 JUNCTION     0.000    2.145     0  04:36           0        18.5       0.119
  J108                 JUNCTION     0.000    2.143     0  04:37    2.14e-05        18.5       0.108
  J109                 JUNCTION     0.000    2.142     0  04:37           0        18.4       0.091
  J110                 JUNCTION     0.000    2.141     0  04:37           0        18.4       0.088
  J111                 JUNCTION     0.000    2.140     0  04:38    0.000186        18.4       0.065
  J112                 JUNCTION     0.000    2.173     0  04:38           0        18.6       0.091
  J113                 JUNCTION     0.000    2.172     0  04:38           0        18.6       0.089
  J114                 JUNCTION     0.000    2.171     0  04:39           0        18.6       0.076
  J115                 JUNCTION     0.000    2.171     0  04:39           0        18.6       0.056
  J116                 JUNCTION     0.000    2.170     0  04:39    6.19e-06        18.6       0.073
  J117                 JUNCTION     0.000    2.170     0  04:40           0        18.5       0.091
  J118                 JUNCTION     0.000    2.169     0  04:40           0        18.5       0.079
  J119                 JUNCTION     0.000    2.169     0  04:40           0        18.5       0.076
  J120                 JUNCTION     0.000    2.169     0  04:40           0        18.5       0.094
  FID2451              JUNCTION     0.000    1.129     0  04:09           0        14.7       0.227
  J121                 JUNCTION     0.006    1.764     0  04:35      0.0162        16.4       0.105
  J122                 JUNCTION     0.000    1.764     0  04:35    0.000736        16.4       0.093
  FID3706              JUNCTION     0.000    2.050     0  04:35           0          18       0.163
  FID2831              JUNCTION     0.000    2.096     0  04:33           0        18.5       0.104
  FID2689              OUTFALL      0.000    2.169     0  04:41           0        18.5       0.000
  
  
  **********************
  Node Surcharge Summary
  **********************
  
  Surcharging occurs when water rises above the top of the highest conduit.
  ---------------------------------------------------------------------
                                               Max. Height   Min. Depth
                                   Hours       Above Crown    Below Rim
  Node                 Type      Surcharged         Meters       Meters
  ---------------------------------------------------------------------
  FID2446              JUNCTION        0.11          0.081        0.000
  FID2719              JUNCTION        0.07          0.381        0.000
  
  
  *********************
  Node Flooding Summary
  *********************
  
  Flooding refers to all water that overflows a node, whether it ponds or not.
  --------------------------------------------------------------------------
                                                             Total   Maximum
                                 Maximum   Time of Max       Flood    Ponded
                        Hours       Rate    Occurrence      Volume     Depth
  Node                 Flooded       CMS   days hr:min    10^6 ltr    Meters
  --------------------------------------------------------------------------
  FID2446                 0.11     0.008      0  04:03       0.002     0.081
  
  
  ***********************
  Outfall Loading Summary
  ***********************
  
  -----------------------------------------------------------------------------------------------------
                         Flow       Avg       Max       Total         Total         Total         Total
                         Freq      Flow      Flow      Volume           TSS            TP           TDP
  Outfall Node           Pcnt       CMS       CMS    10^6 ltr            kg            kg            kg
  -----------------------------------------------------------------------------------------------------
  FID2689               76.93     0.986     2.169      18.476      4738.215         3.728         6.004
  -----------------------------------------------------------------------------------------------------
  System                76.93     0.986     2.169      18.476      4738.215         3.728         6.004
  
  
  ********************
  Link Flow Summary
  ********************
  
  -----------------------------------------------------------------------------
                                 Maximum  Time of Max   Maximum    Max/    Max/
                                  |Flow|   Occurrence   |Veloc|    Full    Full
  Link                 Type          CMS  days hr:min     m/sec    Flow   Depth
  -----------------------------------------------------------------------------
  FID1123              CONDUIT     0.025     0  04:10      0.78    0.46    0.70
  FID1139              CONDUIT     0.179     0  04:05      1.65    1.42    0.91
  FID1148              CONDUIT     0.188     0  04:10      1.03    0.51    0.32
  FID1149              CONDUIT     0.188     0  04:10      2.16    0.07    0.35
  FID3364              CONDUIT     0.202     0  04:10      0.98    0.18    0.44
  FID3671              CONDUIT     0.011     0  04:14      1.06    0.09    0.20
  FID3672              CONDUIT     0.037     0  04:15      1.48    0.30    0.38
  FID3762              CONDUIT     0.074     0  04:15      1.85    0.25    0.48
  FID3765              CONDUIT     0.162     0  04:15      2.67    0.50    0.59
  FID4112              CONDUIT     0.196     0  04:05      1.65    0.38    0.43
  FID4186              CONDUIT     0.012     0  04:05      0.91    0.07    0.18
  FID4187              CONDUIT     0.012     0  04:05      1.44    0.04    0.13
  FID4201              CONDUIT     0.136     0  04:05      1.21    1.54    0.96
  FID4202              CONDUIT     0.135     0  04:05      1.36    1.09    0.81
  FID4203              CONDUIT     0.000     0  00:00      0.00    0.00    0.33
  FID4299              CONDUIT     0.008     0  03:30      0.92    0.04    0.13
  FID4372              CONDUIT     0.254     0  04:05      1.00    0.05    0.39
  FID4498              CONDUIT     0.023     0  04:10      0.51    0.06    0.71
  FID4806              CONDUIT     0.210     0  04:05      4.99    0.03    0.12
  FID4807              CONDUIT     0.002     0  03:30      0.70    0.01    0.09
  FID4882              CONDUIT     0.000     0  03:51      0.02    0.00    0.52
  FID4884              CONDUIT     0.075     0  04:10      1.81    0.03    0.18
  FID4914              CONDUIT     0.016     0  04:10      0.23    0.06    0.58
  FID4915              CONDUIT     0.003     0  04:10      0.23    0.10    0.22
  FID4916              CONDUIT     0.003     0  04:10      0.28    0.09    0.16
  FID4917              CONDUIT     0.004     0  03:55      0.82    0.01    0.54
  FID5307              CONDUIT     0.013     0  04:05      0.44    0.26    0.32
  FID5308              CONDUIT     0.007     0  03:30      1.16    0.04    0.14
  FID5312              CONDUIT     0.013     0  04:05      0.60    0.09    0.19
  FID5865              CONDUIT     0.368     0  04:20      3.14    0.18    0.38
  C9                   CHANNEL     0.667     0  04:15      0.66    0.07    0.48
  C12                  CHANNEL     0.668     0  04:20      0.46    0.29    0.57
  C13                  CHANNEL     0.680     0  04:20      0.62    0.30    0.59
  C14                  CHANNEL     0.465     0  04:34      0.69    0.20    0.60
  C52                  CONDUIT     0.207     0  04:05      1.48    0.35    0.57
  C130                 CONDUIT     0.042     0  04:05      0.63    0.87    0.43
  C131                 CONDUIT     0.042     0  04:05      1.65    0.10    0.47
  C139                 CONDUIT     0.002     0  03:32      0.09    0.02    0.55
  C191                 CHANNEL     0.498     0  04:19      0.48    0.22    0.64
  C193                 CHANNEL     0.515     0  04:18      0.38    0.23    0.74
  C194                 CHANNEL     0.529     0  04:33      0.30    0.23    0.79
  C195                 CHANNEL     0.532     0  04:33      0.35    0.10    0.63
  C196                 CONDUIT     0.488     0  04:19      0.45    0.35    0.67
  C197                 CONDUIT     0.654     0  04:15      0.24    0.31    0.88
  C198                 CHANNEL     0.726     0  04:15      0.31    0.14    0.52
  C199                 CHANNEL     0.726     0  04:15      0.32    3.17    0.61
  C200                 CHANNEL     0.728     0  04:15      0.34    2.87    0.58
  C201                 CHANNEL     0.731     0  04:15      0.35    0.22    0.49
  C202                 CHANNEL     0.737     0  04:15      0.35    0.22    0.50
  C203                 CHANNEL     0.742     0  04:15      0.35    0.22    0.51
  C204                 CHANNEL     0.747     0  04:15      0.51    0.22    0.52
  C205                 CONDUIT     0.887     0  04:05      0.35    0.61    0.64
  C206                 CHANNEL     1.059     0  04:05      0.43    0.31    0.53
  C207                 CHANNEL     1.018     0  04:05      0.42    0.30    0.52
  C208                 CHANNEL     0.954     0  04:06      0.40    0.28    0.52
  C209                 CHANNEL     0.943     0  04:07      0.40    0.28    0.52
  C210                 CHANNEL     0.946     0  04:07      0.48    0.29    0.61
  C211                 CHANNEL     0.954     0  04:08      0.47    0.35    0.56
  C212                 CONDUIT     1.234     0  04:05      0.47    0.71    0.67
  C213                 CHANNEL     1.224     0  04:05      0.60    0.44    0.56
  C214                 CHANNEL     1.206     0  04:05      0.63    0.44    0.54
  C215                 CONDUIT     1.140     0  04:08      0.41    0.66    0.69
  C216                 CONDUIT     1.117     0  04:09      0.51    0.83    0.58
  C217                 CONDUIT     1.127     0  04:09      0.43    0.45    0.45
  C218                 CHANNEL     1.272     0  04:09      0.54    0.46    0.63
  C219                 CHANNEL     1.267     0  04:10      0.54    0.46    0.62
  C220                 CHANNEL     1.261     0  04:10      0.55    0.46    0.61
  C221                 CHANNEL     1.260     0  04:11      0.57    0.46    0.59
  C222                 CONDUIT     1.315     0  04:11      0.55    0.88    0.69
  C223                 CHANNEL     1.399     0  04:11      1.38    0.17    0.60
  C224                 CHANNEL     1.392     0  04:12      0.52    0.90    0.91
  C225                 CHANNEL     1.387     0  04:21      0.53    0.90    0.89
  C226                 CHANNEL     1.382     0  04:21      0.54    0.90    0.88
  C227                 CONDUIT     1.377     0  04:23      0.42    1.12    0.94
  C228                 CHANNEL     1.386     0  04:23      0.68    0.57    0.74
  C229                 CONDUIT     1.442     0  04:20      0.34    0.25    0.54
  C230                 CHANNEL     1.446     0  04:20      0.67    0.59    0.76
  C231                 CHANNEL     1.438     0  04:20      0.67    0.59    0.76
  C232                 CHANNEL     1.428     0  04:22      0.67    0.58    0.76
  C233                 CHANNEL     1.421     0  04:26      0.66    0.58    0.76
  C234                 CONDUIT     1.429     0  04:25      0.50    0.59    0.61
  C235                 CHANNEL     1.433     0  04:25      0.66    0.58    0.78
  C236                 CHANNEL     1.599     0  04:22      0.69    0.76    0.87
  C237                 CHANNEL     1.598     0  04:22      0.68    0.76    0.87
  C238                 CHANNEL     1.644     0  04:21      0.71    0.79    0.87
  C239                 CHANNEL     1.637     0  04:23      0.71    0.78    0.87
  C240                 CHANNEL     1.634     0  04:23      0.71    0.76    0.87
  C241                 CHANNEL     1.635     0  04:23      0.76    0.78    0.87
  C242                 CONDUIT     1.642     0  04:23      0.52    0.57    0.70
  C243                 CHANNEL     1.641     0  04:25      0.74    0.78    0.84
  C244                 CHANNEL     1.640     0  04:31      0.94    0.27    0.50
  C245                 CONDUIT     1.641     0  04:31      0.63    0.45    0.64
  C246                 CHANNEL     1.770     0  04:30      0.60    0.57    0.73
  C247                 CHANNEL     1.765     0  04:32      0.62    0.57    0.72
  C248                 CHANNEL     1.763     0  04:34      0.65    0.57    0.69
  C249                 CHANNEL     1.764     0  04:35      2.75    0.71    0.71
  C250                 CONDUIT     1.764     0  04:35      0.75    0.65    0.58
  C251                 CONDUIT     1.765     0  04:35      0.75    0.65    0.58
  C252                 CHANNEL     1.834     0  04:30      2.04    0.74    0.68
  C253                 CHANNEL     1.830     0  04:31      0.84    0.42    0.68
  C254                 CHANNEL     1.824     0  04:33      1.55    0.41    0.72
  C255                 CHANNEL     1.819     0  04:35      0.52    0.41    0.78
  C256                 CHANNEL     1.827     0  04:36      3.53    0.42    0.84
  C257                 CHANNEL     1.827     0  04:36      1.53    0.42    0.87
  C258                 CONDUIT     1.827     0  04:36      0.62    0.67    0.73
  C259                 CHANNEL     1.828     0  04:37      0.87    0.42    0.92
  C260                 CHANNEL     1.829     0  04:38      0.92    0.42    0.96
  C261                 CHANNEL     1.843     0  04:37      1.45    0.42    0.98
  C262                 CHANNEL     1.845     0  04:37      0.48    0.42    1.00
  C263                 CHANNEL     1.848     0  04:38      0.52    0.43    0.71
  C264                 CONDUIT     1.850     0  04:38      0.58    0.96    0.77
  C265                 CHANNEL     2.046     0  04:34      0.62    0.47    0.64
  C266                 CHANNEL     2.046     0  04:34      0.65    0.40    0.69
  C267                 CHANNEL     2.045     0  04:35      0.65    0.40    0.69
  C268                 CHANNEL     2.045     0  04:35      0.65    0.40    0.69
  C269                 CHANNEL     2.050     0  04:35      0.89    0.40    0.69
  C270                 CHANNEL     2.050     0  04:36      0.66    0.40    0.69
  C271                 CHANNEL     2.051     0  04:36      0.66    0.40    0.69
  C272                 CHANNEL     2.051     0  04:36      0.66    0.40    0.69
  C273                 CHANNEL     2.095     0  04:34      0.68    0.41    0.68
  C274                 CHANNEL     2.093     0  04:35      0.69    0.41    0.68
  C275                 CHANNEL     2.092     0  04:35      0.71    0.41    0.67
  C276                 CHANNEL     2.091     0  04:36      0.73    0.41    0.66
  C277                 CHANNEL     2.090     0  04:36      0.75    0.41    0.65
  C278                 CHANNEL     2.090     0  04:37      0.79    0.41    0.63
  C279                 CHANNEL     2.091     0  04:37      0.91    0.41    0.58
  C280                 CHANNEL     2.093     0  04:38      0.76    0.71    0.80
  C281                 CHANNEL     2.139     0  04:35      0.78    0.73    0.80
  C282                 CHANNEL     2.137     0  04:35      0.78    0.73    0.79
  C283                 CHANNEL     2.150     0  04:35      0.80    0.73    0.78
  C284                 CHANNEL     2.148     0  04:35      0.82    0.73    0.77
  C285                 CHANNEL     2.146     0  04:36      0.85    0.73    0.74
  C286                 CHANNEL     2.145     0  04:36      0.95    0.52    0.73
  C287                 CHANNEL     2.143     0  04:37      0.95    0.52    0.73
  C288                 CHANNEL     2.142     0  04:37      0.95    0.52    0.73
  C289                 CHANNEL     2.141     0  04:37      0.95    0.52    0.73
  C290                 CHANNEL     2.140     0  04:38      0.94    0.52    0.73
  C291                 CHANNEL     2.139     0  04:38      0.94    0.52    0.73
  C292                 CHANNEL     2.173     0  04:38      0.95    0.53    0.73
  C293                 CHANNEL     2.172     0  04:38      0.95    0.53    0.73
  C294                 CHANNEL     2.171     0  04:39      0.95    0.53    0.73
  C295                 CHANNEL     2.171     0  04:39      0.95    0.53    0.73
  C296                 CHANNEL     2.170     0  04:39      0.95    0.53    0.73
  C297                 CHANNEL     2.170     0  04:40      0.96    0.53    0.73
  C298                 CHANNEL     2.169     0  04:40      0.96    0.53    0.73
  C299                 CHANNEL     2.169     0  04:40      0.97    0.53    0.72
  C300                 CHANNEL     2.169     0  04:40      0.99    0.53    0.71
  C301                 CHANNEL     2.169     0  04:41      1.51    0.39    0.47
  C302                 CHANNEL     0.666     0  04:15      0.57    0.10    0.43
  C303                 CHANNEL     0.505     0  04:19      0.43    0.22    0.68
  C353                 CONDUIT     0.075     0  04:15      1.75    0.03    0.12
  
  
  ***************************
  Flow Classification Summary
  ***************************
  
  -------------------------------------------------------------------------------------
                      Adjusted    ---------- Fraction of Time in Flow Class ---------- 
                       /Actual         Up    Down  Sub   Sup   Up    Down  Norm  Inlet 
  Conduit               Length    Dry  Dry   Dry   Crit  Crit  Crit  Crit  Ltd   Ctrl  
  -------------------------------------------------------------------------------------
  FID1123                 1.00   0.18  0.00  0.00  0.31  0.00  0.00  0.51  0.21  0.00
  FID1139                 1.00   0.16  0.00  0.00  0.19  0.00  0.00  0.65  0.13  0.00
  FID1148                 1.00   0.14  0.00  0.00  0.53  0.00  0.00  0.33  0.00  0.00
  FID1149                 1.00   0.15  0.00  0.00  0.46  0.06  0.00  0.33  0.38  0.00
  FID3364                 1.00   0.14  0.01  0.00  0.86  0.00  0.00  0.00  0.70  0.00
  FID3671                 1.00   0.22  0.00  0.00  0.00  0.00  0.00  0.78  0.00  0.00
  FID3672                 1.00   0.18  0.00  0.00  0.00  0.00  0.00  0.82  0.00  0.00
  FID3762                 1.00   0.01  0.16  0.00  0.71  0.12  0.00  0.00  0.67  0.00
  FID3765                 1.00   0.01  0.16  0.00  0.66  0.17  0.00  0.00  0.68  0.00
  FID4112                 1.00   0.16  0.00  0.00  0.00  0.00  0.00  0.84  0.00  0.00
  FID4186                 1.00   0.22  0.00  0.00  0.40  0.11  0.00  0.27  0.00  0.00
  FID4187                 1.00   0.23  0.00  0.00  0.00  0.00  0.00  0.77  0.00  0.00
  FID4201                 1.00   0.16  0.00  0.00  0.78  0.00  0.00  0.06  0.45  0.00
  FID4202                 1.00   0.19  0.00  0.00  0.00  0.00  0.00  0.81  0.00  0.00
  FID4203                 1.00   0.17  0.83  0.00  0.00  0.00  0.00  0.00  0.00  0.00
  FID4299                 1.00   0.23  0.00  0.00  0.00  0.00  0.00  0.77  0.00  0.00
  FID4372                 1.00   0.07  0.12  0.00  0.81  0.00  0.00  0.00  0.66  0.00
  FID4498                 1.00   0.14  0.00  0.00  0.85  0.00  0.00  0.01  0.58  0.00
  FID4806                 1.00   0.17  0.00  0.00  0.00  0.00  0.00  0.83  0.00  0.00
  FID4807                 1.00   0.24  0.00  0.00  0.00  0.00  0.00  0.76  0.00  0.00
  FID4882                 1.00   0.24  0.30  0.00  0.30  0.00  0.00  0.16  0.59  0.00
  FID4884                 1.00   0.15  0.00  0.00  0.20  0.03  0.00  0.62  0.15  0.00
  FID4914                 1.00   0.11  0.07  0.00  0.81  0.00  0.00  0.00  0.66  0.00
  FID4915                 1.00   0.24  0.00  0.00  0.76  0.00  0.00  0.01  0.49  0.00
  FID4916                 1.00   0.24  0.00  0.00  0.58  0.00  0.00  0.18  0.10  0.00
  FID4917                 1.00   0.25  0.00  0.00  0.42  0.00  0.00  0.32  0.31  0.00
  FID5307                 1.00   0.22  0.00  0.00  0.75  0.00  0.00  0.03  0.49  0.00
  FID5308                 1.00   0.23  0.00  0.00  0.00  0.00  0.00  0.77  0.00  0.00
  FID5312                 1.00   0.23  0.00  0.00  0.00  0.00  0.00  0.77  0.00  0.00
  FID5865                 1.00   0.15  0.00  0.00  0.17  0.13  0.00  0.55  0.21  0.00
  C9                      1.00   0.00  0.00  0.00  1.00  0.00  0.00  0.00  0.00  0.00
  C12                     1.00   0.00  0.00  0.00  1.00  0.00  0.00  0.00  0.00  0.00
  C13                     1.00   0.00  0.00  0.00  1.00  0.00  0.00  0.00  0.00  0.00
  C14                     1.00   0.00  0.00  0.00  1.00  0.00  0.00  0.00  0.00  0.00
  C52                     1.00   0.04  0.14  0.00  0.82  0.01  0.00  0.00  0.68  0.00
  C130                    1.00   0.22  0.00  0.00  0.54  0.00  0.00  0.24  0.00  0.00
  C131                    1.00   0.24  0.00  0.00  0.38  0.01  0.00  0.37  0.28  0.00
  C139                    1.00   0.14  0.46  0.00  0.39  0.00  0.01  0.00  0.49  0.00
  C191                    1.00   0.00  0.00  0.00  1.00  0.00  0.00  0.00  0.00  0.00
  C193                    1.00   0.00  0.00  0.00  1.00  0.00  0.00  0.00  0.00  0.00
  C194                    1.00   0.00  0.00  0.00  1.00  0.00  0.00  0.00  0.00  0.00
  C195                    1.00   0.01  0.00  0.00  0.99  0.00  0.00  0.00  0.00  0.00
  C196                    1.00   0.00  0.00  0.00  1.00  0.00  0.00  0.00  0.00  0.00
  C197                    1.00   0.01  0.00  0.00  0.99  0.00  0.00  0.00  0.00  0.00
  C198                    1.00   0.01  0.00  0.00  0.99  0.00  0.00  0.00  0.00  0.00
  C199                    1.00   0.01  0.00  0.00  0.99  0.00  0.00  0.00  0.00  0.00
  C200                    1.00   0.01  0.00  0.00  0.99  0.00  0.00  0.00  0.00  0.00
  C201                    1.00   0.01  0.00  0.00  0.99  0.00  0.00  0.00  0.00  0.00
  C202                    1.00   0.01  0.00  0.00  0.99  0.00  0.00  0.00  0.00  0.00
  C203                    1.00   0.01  0.00  0.00  0.99  0.00  0.00  0.00  0.00  0.00
  C204                    1.00   0.01  0.00  0.00  0.99  0.00  0.00  0.00  0.00  0.00
  C205                    1.00   0.02  0.00  0.00  0.98  0.00  0.00  0.00  0.00  0.00
  C206                    1.00   0.02  0.00  0.00  0.98  0.00  0.00  0.00  0.00  0.00
  C207                    1.00   0.02  0.00  0.00  0.98  0.00  0.00  0.00  0.00  0.00
  C208                    1.00   0.02  0.00  0.00  0.98  0.00  0.00  0.00  0.00  0.00
  C209                    1.00   0.02  0.00  0.00  0.98  0.00  0.00  0.00  0.00  0.00
  C210                    1.00   0.02  0.00  0.00  0.98  0.00  0.00  0.00  0.00  0.00
  C211                    1.00   0.02  0.00  0.00  0.98  0.00  0.00  0.00  0.00  0.00
  C212                    1.00   0.02  0.00  0.00  0.98  0.00  0.00  0.00  0.00  0.00
  C213                    1.00   0.02  0.00  0.00  0.98  0.00  0.00  0.00  0.00  0.00
  C214                    1.00   0.02  0.00  0.00  0.98  0.00  0.00  0.00  0.00  0.00
  C215                    1.00   0.03  0.00  0.00  0.97  0.00  0.00  0.00  0.71  0.00
  C216                    1.00   0.03  0.00  0.00  0.97  0.00  0.00  0.00  0.00  0.00
  C217                    1.00   0.03  0.00  0.00  0.97  0.00  0.00  0.00  0.00  0.00
  C218                    1.00   0.03  0.00  0.00  0.97  0.00  0.00  0.00  0.00  0.00
  C219                    1.00   0.03  0.00  0.00  0.97  0.00  0.00  0.00  0.00  0.00
  C220                    1.00   0.04  0.00  0.00  0.96  0.00  0.00  0.00  0.00  0.00
  C221                    1.00   0.04  0.00  0.00  0.96  0.00  0.00  0.00  0.00  0.00
  C222                    1.00   0.04  0.00  0.00  0.96  0.00  0.00  0.00  0.00  0.00
  C223                    1.00   0.04  0.00  0.00  0.96  0.00  0.00  0.00  0.01  0.00
  C224                    1.00   0.04  0.00  0.00  0.96  0.00  0.00  0.00  0.00  0.00
  C225                    1.00   0.04  0.00  0.00  0.96  0.00  0.00  0.00  0.00  0.00
  C226                    1.00   0.04  0.00  0.00  0.96  0.00  0.00  0.00  0.00  0.00
  C227                    1.00   0.05  0.00  0.00  0.95  0.00  0.00  0.00  0.00  0.00
  C228                    1.00   0.05  0.00  0.00  0.95  0.00  0.00  0.00  0.00  0.00
  C229                    1.00   0.05  0.00  0.00  0.95  0.00  0.00  0.00  0.00  0.00
  C230                    1.00   0.05  0.00  0.00  0.95  0.00  0.00  0.00  0.00  0.00
  C231                    1.00   0.06  0.00  0.00  0.94  0.00  0.00  0.00  0.01  0.00
  C232                    1.00   0.06  0.00  0.00  0.94  0.00  0.00  0.00  0.00  0.00
  C233                    1.00   0.06  0.00  0.00  0.94  0.00  0.00  0.00  0.03  0.00
  C234                    1.00   0.06  0.00  0.00  0.94  0.00  0.00  0.00  0.00  0.00
  C235                    1.00   0.06  0.00  0.00  0.94  0.00  0.00  0.00  0.00  0.00
  C236                    1.00   0.06  0.00  0.00  0.94  0.00  0.00  0.00  0.00  0.00
  C237                    1.00   0.07  0.00  0.00  0.93  0.00  0.00  0.00  0.00  0.00
  C238                    1.00   0.07  0.00  0.00  0.93  0.00  0.00  0.00  0.00  0.00
  C239                    1.00   0.07  0.00  0.00  0.93  0.00  0.00  0.00  0.00  0.00
  C240                    1.00   0.07  0.00  0.00  0.93  0.00  0.00  0.00  0.00  0.00
  C241                    1.00   0.07  0.00  0.00  0.93  0.00  0.00  0.00  0.00  0.00
  C242                    1.00   0.07  0.00  0.00  0.93  0.00  0.00  0.00  0.00  0.00
  C243                    1.00   0.07  0.00  0.00  0.93  0.00  0.00  0.00  0.00  0.00
  C244                    1.00   0.07  0.00  0.00  0.92  0.01  0.00  0.00  0.00  0.00
  C245                    1.00   0.08  0.00  0.00  0.92  0.00  0.00  0.00  0.00  0.00
  C246                    1.00   0.08  0.00  0.00  0.92  0.00  0.00  0.00  0.51  0.00
  C247                    1.00   0.09  0.00  0.00  0.91  0.00  0.00  0.00  0.00  0.00
  C248                    1.00   0.10  0.00  0.00  0.90  0.00  0.00  0.00  0.00  0.00
  C249                    1.00   0.11  0.00  0.00  0.89  0.00  0.00  0.00  0.00  0.00
  C250                    1.00   0.12  0.00  0.00  0.88  0.00  0.00  0.00  0.00  0.00
  C251                    1.00   0.13  0.00  0.00  0.87  0.00  0.00  0.00  0.00  0.00
  C252                    1.00   0.13  0.00  0.00  0.87  0.00  0.00  0.00  0.00  0.00
  C253                    1.00   0.13  0.00  0.00  0.87  0.00  0.00  0.00  0.00  0.00
  C254                    1.00   0.14  0.00  0.00  0.86  0.00  0.00  0.00  0.04  0.00
  C255                    1.00   0.14  0.00  0.00  0.86  0.00  0.00  0.00  0.00  0.00
  C256                    1.00   0.13  0.01  0.00  0.86  0.00  0.00  0.00  0.00  0.00
  C257                    1.00   0.13  0.00  0.00  0.87  0.00  0.00  0.00  0.00  0.00
  C258                    1.00   0.13  0.02  0.00  0.85  0.00  0.00  0.00  0.00  0.00
  C259                    1.00   0.13  0.00  0.00  0.87  0.00  0.00  0.00  0.00  0.00
  C260                    1.00   0.15  0.01  0.00  0.84  0.00  0.00  0.00  0.00  0.00
  C261                    1.00   0.15  0.00  0.00  0.85  0.00  0.00  0.00  0.00  0.00
  C262                    1.00   0.15  0.00  0.00  0.85  0.00  0.00  0.00  0.00  0.00
  C263                    1.00   0.16  0.00  0.00  0.84  0.00  0.00  0.00  0.00  0.00
  C264                    1.00   0.15  0.00  0.00  0.85  0.00  0.00  0.00  0.00  0.00
  C265                    1.00   0.15  0.02  0.00  0.83  0.00  0.00  0.00  0.00  0.00
  C266                    1.00   0.17  0.00  0.00  0.83  0.00  0.00  0.00  0.00  0.00
  C267                    1.00   0.17  0.00  0.00  0.83  0.00  0.00  0.00  0.00  0.00
  C268                    1.00   0.18  0.00  0.00  0.82  0.00  0.00  0.00  0.00  0.00
  C269                    1.00   0.18  0.00  0.00  0.82  0.00  0.00  0.00  0.00  0.00
  C270                    1.00   0.18  0.00  0.00  0.82  0.00  0.00  0.00  0.00  0.00
  C271                    1.00   0.16  0.02  0.00  0.82  0.00  0.00  0.00  0.00  0.00
  C272                    1.00   0.15  0.01  0.00  0.84  0.00  0.00  0.00  0.00  0.00
  C273                    1.00   0.15  0.00  0.00  0.85  0.00  0.00  0.00  0.00  0.00
  C274                    1.00   0.16  0.00  0.00  0.84  0.00  0.00  0.00  0.00  0.00
  C275                    1.00   0.19  0.00  0.00  0.81  0.00  0.00  0.00  0.00  0.00
  C276                    1.00   0.19  0.00  0.00  0.81  0.00  0.00  0.00  0.00  0.00
  C277                    1.00   0.19  0.00  0.00  0.81  0.00  0.00  0.00  0.00  0.00
  C278                    1.00   0.20  0.00  0.00  0.80  0.00  0.00  0.00  0.00  0.00
  C279                    1.00   0.20  0.00  0.00  0.80  0.00  0.00  0.00  0.00  0.00
  C280                    1.00   0.16  0.04  0.00  0.80  0.00  0.00  0.00  0.00  0.00
  C281                    1.00   0.16  0.00  0.00  0.84  0.00  0.00  0.00  0.01  0.00
  C282                    1.00   0.17  0.00  0.00  0.83  0.00  0.00  0.00  0.00  0.00
  C283                    1.00   0.18  0.00  0.00  0.82  0.00  0.00  0.00  0.00  0.00
  C284                    1.00   0.20  0.00  0.00  0.80  0.00  0.00  0.00  0.00  0.00
  C285                    1.00   0.21  0.00  0.00  0.79  0.00  0.00  0.00  0.00  0.00
  C286                    1.00   0.21  0.00  0.00  0.79  0.00  0.00  0.00  0.25  0.00
  C287                    1.00   0.17  0.04  0.00  0.79  0.00  0.00  0.00  0.24  0.00
  C288                    1.00   0.17  0.00  0.00  0.83  0.00  0.00  0.00  0.00  0.00
  C289                    1.00   0.21  0.00  0.00  0.79  0.00  0.00  0.00  0.00  0.00
  C290                    1.00   0.15  0.06  0.00  0.78  0.00  0.00  0.00  0.00  0.00
  C291                    1.00   0.15  0.00  0.00  0.85  0.00  0.00  0.00  0.04  0.00
  C292                    1.00   0.18  0.00  0.00  0.82  0.00  0.00  0.00  0.00  0.00
  C293                    1.00   0.18  0.00  0.00  0.82  0.00  0.00  0.00  0.00  0.00
  C294                    1.00   0.20  0.00  0.00  0.80  0.00  0.00  0.00  0.00  0.00
  C295                    1.00   0.22  0.00  0.00  0.78  0.00  0.00  0.00  0.00  0.00
  C296                    1.00   0.22  0.00  0.00  0.78  0.00  0.00  0.00  0.00  0.00
  C297                    1.00   0.22  0.00  0.00  0.78  0.00  0.00  0.00  0.00  0.00
  C298                    1.00   0.23  0.00  0.00  0.77  0.00  0.00  0.00  0.00  0.00
  C299                    1.00   0.23  0.00  0.00  0.77  0.00  0.00  0.00  0.00  0.00
  C300                    1.00   0.23  0.00  0.00  0.77  0.00  0.00  0.00  0.00  0.00
  C301                    1.00   0.23  0.00  0.00  0.77  0.00  0.00  0.00  0.00  0.00
  C302                    1.00   0.00  0.00  0.00  1.00  0.00  0.00  0.00  0.00  0.00
  C303                    1.00   0.00  0.00  0.00  1.00  0.00  0.00  0.00  0.00  0.00
  C353                    1.00   0.18  0.00  0.00  0.00  0.00  0.00  0.82  0.00  0.00
  
  
  *************************
  Conduit Surcharge Summary
  *************************
  
  ----------------------------------------------------------------------------
                                                           Hours        Hours 
                         --------- Hours Full --------   Above Full   Capacity
  Conduit                Both Ends  Upstream  Dnstream   Normal Flow   Limited
  ----------------------------------------------------------------------------
  FID1123                     0.01      0.01      0.52      0.01         0.01
  FID1139                     0.01      0.07      0.01      0.10         0.01
  FID4201                     0.01      0.11      0.01      0.20         0.01
  FID4202                     0.01      0.01      0.01      0.07         0.01
  FID4498                     0.01      0.01      1.48      0.01         0.01
  FID4882                     0.01      0.01      1.99      0.01         0.01
  FID4914                     0.01      0.01      2.07      0.01         0.01
  FID4917                     0.01      0.01      0.93      0.01         0.01
  C199                        0.01      0.01      0.01      8.53         0.01
  C200                        0.01      0.01      0.01      8.47         0.01
  C227                        0.01      0.01      0.01      0.52         0.01
  C262                        0.01      0.01      0.80      0.01         0.01
  
  
  ***************************
  Link Pollutant Load Summary
  ***************************
  
  --------------------------------------------------------------
                                 TSS            TP           TDP
  Link                            kg            kg            kg
  --------------------------------------------------------------
  FID1123                      4.677         0.001         0.014
  FID1139                     47.009         0.035         0.134
  FID1148                     97.271         0.064         0.265
  FID1149                     97.064         0.064         0.265
  FID3364                    119.336         0.071         0.326
  FID3671                      6.720         0.000         0.018
  FID3672                     29.833         0.024         0.084
  FID3762                    101.355         0.043         0.255
  FID3765                    139.744         0.064         0.367
  FID4112                     49.411         0.035         0.131
  FID4186                     13.518         0.001         0.031
  FID4187                     13.060         0.001         0.030
  FID4201                     36.475         0.026         0.089
  FID4202                     35.746         0.025         0.085
  FID4203                      0.000         0.000         0.000
  FID4299                      6.221         0.004         0.015
  FID4372                   1064.743         0.240         0.135
  FID4498                     51.782         0.063         0.143
  FID4806                   1334.071         0.968         0.223
  FID4807                      0.000         0.000         0.001
  FID4882                      0.000         0.000         0.000
  FID4884                     24.711         0.010         0.065
  FID4914                     24.038         0.010         0.062
  FID4915                      0.850         0.002         0.005
  FID4916                      0.102         0.000         0.001
  FID4917                      0.043         0.000         0.000
  FID5307                      9.973         0.008         0.029
  FID5308                      6.791         0.006         0.017
  FID5312                      8.693         0.007         0.026
  FID5865                    450.094         1.159         0.272
  C9                         169.541         1.038         1.349
  C12                        168.414         1.022         1.330
  C13                        187.481         1.029         1.368
  C14                        122.860         0.678         0.905
  C52                        169.331         0.100         0.473
  C130                        13.820         0.010         0.030
  C131                        13.578         0.009         0.030
  C139                         2.756         0.001         0.004
  C191                       159.110         0.696         0.998
  C193                       158.804         0.678         0.976
  C194                       156.792         0.673         0.972
  C195                       156.418         0.670         0.969
  C196                       152.649         0.699         0.985
  C197                       296.177         0.732         1.333
  C198                       397.290         0.772         1.586
  C199                       398.888         0.770         1.586
  C200                       397.884         0.767         1.581
  C201                       402.716         0.763         1.578
  C202                       409.098         0.761         1.590
  C203                       408.278         0.758         1.586
  C204                       406.919         0.756         1.582
  C205                       489.704         0.822         1.810
  C206                       538.296         0.854         1.937
  C207                       540.522         0.852         1.941
  C208                       552.550         0.848         1.962
  C209                       547.005         0.842         1.947
  C210                       547.276         0.840         1.945
  C211                       546.378         0.838         1.941
  C212                       695.109         0.920         2.329
  C213                       697.713         0.921         2.335
  C214                       697.686         0.920         2.334
  C215                       760.018         0.921         2.446
  C216                       726.961         0.901         2.386
  C217                       763.314         0.924         2.469
  C218                       931.166         1.022         2.937
  C219                       933.957         1.020         2.940
  C220                       935.285         1.016         2.939
  C221                       958.400         1.012         2.985
  C222                      1021.402         1.055         3.170
  C223                      1112.327         1.127         3.413
  C224                      1125.251         1.129         3.438
  C225                      1130.422         1.120         3.442
  C226                      1129.770         1.116         3.438
  C227                      1183.067         1.117         3.527
  C228                      1168.228         1.093         3.500
  C229                      1298.433         1.140         3.819
  C230                      1302.762         1.141         3.830
  C231                      1318.487         1.144         3.856
  C232                      1309.108         1.135         3.832
  C233                      1348.297         1.138         3.906
  C234                      1317.817         1.121         3.843
  C235                      1327.366         1.131         3.870
  C236                      2389.423         1.369         4.003
  C237                      2417.372         1.373         4.014
  C238                      2557.297         1.451         4.380
  C239                      2541.377         1.445         4.365
  C240                      2529.674         1.441         4.356
  C241                      2535.938         1.446         4.372
  C242                      2552.959         1.454         4.402
  C243                      2638.059         1.467         4.473
  C244                      2576.800         1.443         4.460
  C245                      2579.716         1.442         4.461
  C246                      4017.531         2.457         4.718
  C247                      3920.477         2.398         4.739
  C248                      3956.854         2.412         4.744
  C249                      3901.798         2.383         4.725
  C250                      3901.379         2.385         4.738
  C251                      3903.695         2.385         4.738
  C252                      4018.309         2.453         5.061
  C253                      4048.498         2.465         5.067
  C254                      4064.349         2.470         5.068
  C255                      4056.227         2.464         5.061
  C256                      4090.592         2.516         5.194
  C257                      4075.357         2.507         5.203
  C258                      4076.333         2.507         5.202
  C259                      4107.901         2.521         5.208
  C260                      4075.533         2.502         5.196
  C261                      4107.140         2.514         5.261
  C262                      4144.149         2.531         5.265
  C263                      4112.806         2.511         5.251
  C264                      4105.200         2.504         5.244
  C265                      4542.855         3.649         5.511
  C266                      4560.659         3.665         5.513
  C267                      4555.277         3.657         5.509
  C268                      4573.294         3.674         5.510
  C269                      4544.674         3.639         5.513
  C270                      4564.180         3.658         5.516
  C271                      4546.647         3.639         5.510
  C272                      4543.372         3.635         5.509
  C273                      4658.822         3.716         5.776
  C274                      4654.917         3.710         5.772
  C275                      4651.229         3.705         5.768
  C276                      4649.610         3.702         5.765
  C277                      4645.783         3.697         5.762
  C278                      4645.190         3.695         5.760
  C279                      4647.501         3.696         5.759
  C280                      4641.870         3.690         5.756
  C281                      4687.513         3.722         5.889
  C282                      4690.240         3.724         5.889
  C283                      4703.447         3.733         5.917
  C284                      4704.477         3.733         5.916
  C285                      4706.405         3.734         5.915
  C286                      4709.097         3.735         5.914
  C287                      4709.146         3.734         5.912
  C288                      4707.136         3.731         5.909
  C289                      4706.540         3.729         5.908
  C290                      4706.935         3.729         5.906
  C291                      4702.458         3.723         5.904
  C292                      4742.020         3.739         6.018
  C293                      4740.772         3.737         6.016
  C294                      4742.036         3.737         6.015
  C295                      4738.154         3.733         6.012
  C296                      4739.173         3.733         6.012
  C297                      4741.784         3.735         6.012
  C298                      4741.989         3.734         6.010
  C299                      4739.040         3.731         6.008
  C300                      4740.648         3.731         6.007
  C301                      4738.215         3.728         6.004
  C302                       169.004         1.033         1.344
  C303                       159.341         0.689         0.990
  C353                        33.627         0.011         0.113
  

  Analysis begun on:  Tue Oct 10 17:40:16 2017
  Analysis ended on:  Tue Oct 10 17:40:34 2017
  Total elapsed time: 00:00:18