
  EPA STORM WATER MANAGEMENT MODEL - VERSION 5.1 (Build 5.1.010)
  --------------------------------------------------------------

  WARNING 04: minimum elevation drop used for Conduit C199
  WARNING 04: minimum elevation drop used for Conduit C200
  WARNING 02: maximum depth increased for Node FID1955
  WARNING 02: maximum depth increased for Node FID1960
  WARNING 02: maximum depth increased for Node FID1965
  WARNING 02: maximum depth increased for Node FID1968
  WARNING 02: maximum depth increased for Node FID2244
  WARNING 02: maximum depth increased for Node FID2442
  WARNING 02: maximum depth increased for Node FID2446
  WARNING 02: maximum depth increased for Node FID5504
  WARNING 02: maximum depth increased for Node FID5527
  WARNING 02: maximum depth increased for Node AFID6926
  WARNING 02: maximum depth increased for Node AFID7376
  
  *********************************************************
  NOTE: The summary statistics displayed in this report are
  based on results found at every computational time step,  
  not just on results from each reporting time step.
  *********************************************************
  
  ****************
  Analysis Options
  ****************
  Flow Units ............... CMS
  Process Models:
    Rainfall/Runoff ........ YES
    RDII ................... NO
    Snowmelt ............... NO
    Groundwater ............ NO
    Flow Routing ........... YES
    Ponding Allowed ........ YES
    Water Quality .......... YES
  Infiltration Method ...... GREEN_AMPT
  Flow Routing Method ...... DYNWAVE
  Starting Date ............ MAY-04-2016 15:00:00
  Ending Date .............. MAY-07-2016 00:00:00
  Antecedent Dry Days ...... 0.0
  Report Time Step ......... 00:01:00
  Wet Time Step ............ 00:01:00
  Dry Time Step ............ 01:00:00
  Routing Time Step ........ 5.00 sec
  Variable Time Step ....... YES
  Maximum Trials ........... 8
  Number of Threads ........ 3
  Head Tolerance ........... 0.001500 m
  
  
  **************************        Volume         Depth
  Runoff Quantity Continuity     hectare-m            mm
  **************************     ---------       -------
  Total Precipitation ......         3.009         7.814
  Evaporation Loss .........         0.000         0.000
  Infiltration Loss ........         1.494         3.880
  Surface Runoff ...........         0.358         0.929
  Final Storage ............         1.158         3.007
  Continuity Error (%) .....        -0.020
  
  
  **************************           TSS            TP           TDP
  Runoff Quality Continuity             kg            kg            kg
  **************************    ----------    ----------    ----------
  Initial Buildup ..........         0.000         0.000         0.000
  Surface Buildup ..........     57610.546        46.058       106.458
  Wet Deposition ...........         0.000         0.000         0.000
  Sweeping Removal .........         0.000         0.000         0.000
  Infiltration Loss ........         0.000         0.000         0.000
  BMP Removal ..............         3.388         0.003         0.005
  Surface Runoff ...........     33871.631        28.183        54.222
  Remaining Buildup ........     23735.528        17.873        52.231
  Continuity Error (%) .....         0.000         0.000         0.000
  
  
  **************************        Volume        Volume
  Flow Routing Continuity        hectare-m      10^6 ltr
  **************************     ---------     ---------
  Dry Weather Inflow .......         0.000         0.000
  Wet Weather Inflow .......         0.358         3.576
  Groundwater Inflow .......         0.000         0.000
  RDII Inflow ..............         0.000         0.000
  External Inflow ..........         8.677        86.775
  External Outflow .........         8.597        85.975
  Flooding Loss ............         0.000         0.000
  Evaporation Loss .........         0.000         0.000
  Exfiltration Loss ........         0.000         0.000
  Initial Stored Volume ....         0.000         0.000
  Final Stored Volume ......         0.442         4.422
  Continuity Error (%) .....        -0.051
  
  
  **************************           TSS            TP           TDP
  Quality Routing Continuity            kg            kg            kg
  **************************    ----------    ----------    ----------
  Dry Weather Inflow .......         0.000         0.000         0.000
  Wet Weather Inflow .......     23168.931        26.673        52.400
  Groundwater Inflow .......         0.000         0.000         0.000
  RDII Inflow ..............         0.000         0.000         0.000
  External Inflow ..........       833.775         4.474         1.843
  External Outflow .........     23461.961        30.926        54.514
  Flooding Loss ............         0.000         0.000         0.000
  Exfiltration Loss ........         0.000         0.000         0.000
  Mass Reacted .............         0.000         0.000         0.000
  Initial Stored Mass ......         0.000         0.000         0.000
  Final Stored Mass ........        55.680         0.349         0.407
  Continuity Error (%) .....         2.021        -0.413        -1.251
  
  
  *************************
  Highest Continuity Errors
  *************************
  Node FID2824 (46.72%)
  Node FID2827 (35.83%)
  Node FID2241 (5.72%)
  Node FID2711 (4.70%)
  Node FID5785 (4.38%)
  
  
  ***************************
  Time-Step Critical Elements
  ***************************
  Link C241 (99.09%)
  
  
  ********************************
  Highest Flow Instability Indexes
  ********************************
  All links are stable.
  
  
  *************************
  Routing Time Step Summary
  *************************
  Minimum Time Step           :     0.50 sec
  Average Time Step           :     0.89 sec
  Maximum Time Step           :     5.00 sec
  Percent in Steady State     :     0.00
  Average Iterations per Step :     2.00
  Percent Not Converging      :     0.00
  
  
  ***************************
  Subcatchment Runoff Summary
  ***************************
  
  --------------------------------------------------------------------------------------------------------
                            Total      Total      Total      Total      Total       Total     Peak  Runoff
                           Precip      Runon       Evap      Infil     Runoff      Runoff   Runoff   Coeff
  Subcatchment                 mm         mm         mm         mm         mm    10^6 ltr      CMS
  --------------------------------------------------------------------------------------------------------
  S0                         6.60       0.00       0.00       5.70       0.04        0.00     0.00   0.007
  S1                         6.60       0.00       0.00       2.88       0.18        0.02     0.00   0.027
  S2                         7.11       0.00       0.00       2.10       0.24        0.04     0.01   0.034
  S3                         6.60       0.00       0.00       4.29       0.11        0.00     0.00   0.017
  S4                         6.60       0.00       0.00       3.11       0.17        0.02     0.01   0.025
  S6                         7.11       0.00       0.00       1.07       0.29        0.01     0.00   0.041
  S7                         7.11       0.00       0.00       3.93       2.36        0.92     0.23   0.332
  S8                         7.11       0.00       0.00       1.07       0.29        0.00     0.00   0.041
  S9                         7.11       0.00       0.00       1.89       0.25        0.00     0.00   0.035
  S10                        7.11       0.00       0.00       2.02       0.24        0.00     0.00   0.034
  S11                        7.11       0.00       0.00       5.57       0.07        0.00     0.00   0.010
  S12                        7.11       0.00       0.00       3.10       0.19        0.00     0.00   0.027
  S13                        7.11       0.00       0.00       3.10       0.19        0.01     0.00   0.027
  S14                        7.11       0.00       0.00       3.10       0.19        0.00     0.00   0.027
  S16                        7.11       0.00       0.00       1.29       2.35        0.13     0.03   0.331
  S17                        7.11       0.00       0.00       3.10       0.19        0.04     0.01   0.027
  S18                        7.11       0.00       0.00       3.10       0.19        0.00     0.00   0.027
  S19                        7.11       0.00       0.00       3.10       0.19        0.00     0.00   0.027
  S20                        7.11       0.00       0.00       3.10       0.19        0.00     0.00   0.027
  S21                        7.37       0.00       0.00       3.63       2.58        1.38     0.33   0.351
  S22                        7.37       0.00       0.00       3.22       0.20        0.00     0.00   0.027
  S23                        7.37       0.00       0.00       3.22       0.20        0.00     0.00   0.027
  S24                        7.37       0.00       0.00       3.22       0.20        0.00     0.00   0.027
  S25                        7.37       0.00       0.00       2.18       0.25        0.00     0.00   0.034
  S27                        7.37       0.00       0.00       2.18       0.25        0.00     0.00   0.034
  S28                        6.60       0.00       0.00       1.95       0.22        0.00     0.00   0.034
  S29                        6.60       0.00       0.00       1.95       0.22        0.00     0.00   0.034
  S30                        7.11       0.00       0.00       2.10       0.24        0.00     0.00   0.034
  S31                        7.11       0.00       0.00       2.10       0.24        0.00     0.00   0.034
  S32                        7.11       0.00       0.00       2.11       0.24        0.00     0.00   0.034
  S33                        7.37       0.00       0.00       2.18       0.25        0.00     0.00   0.034
  S34                        7.37       0.00       0.00       4.42       0.84        0.30     0.13   0.114
  S35                        7.37       0.00       0.00       2.18       0.25        0.00     0.00   0.034
  S36                        7.37       0.00       0.00       2.18       0.25        0.00     0.00   0.034
  S37                        7.37       0.00       0.00       4.78       0.12        0.00     0.00   0.017
  S39                        7.37       0.00       0.00       4.78       0.12        0.02     0.01   0.017
  S40                        7.37       0.00       0.00       4.78       0.12        0.00     0.00   0.017
  S41                        7.37       0.00       0.00       4.78       0.12        0.02     0.01   0.017
  S42                        7.37       0.00       0.00       4.78       0.12        0.01     0.00   0.017
  S43                        7.37       0.00       0.00       4.78       0.12        0.00     0.00   0.017
  S44                        7.37       0.00       0.00       4.78       0.12        0.03     0.01   0.017
  S45                        9.91       0.00       0.00       6.72       0.44        0.00     0.00   0.044
  S47                        9.91       0.00       0.00       6.70       0.42        0.02     0.02   0.042
  S48                        9.91       0.00       0.00       6.72       0.44        0.00     0.00   0.044
  S49                        9.91       0.00       0.00       5.06       0.62        0.12     0.11   0.063
  S51                        9.91       0.00       0.00       5.09       0.65        0.01     0.01   0.066
  S52                        9.91       0.00       0.00       5.06       0.63        0.04     0.06   0.063
  S53                        9.91       0.00       0.00       5.06       0.62        0.09     0.09   0.063
  S54                        9.91       0.00       0.00       5.06       0.62        0.06     0.03   0.063
  S55                        9.91       0.00       0.00       5.06       0.62        0.10     0.05   0.063
  S56                        9.91       0.00       0.00       5.09       0.65        0.00     0.00   0.066
  S57                        9.91       0.00       0.00       5.06       0.62        0.01     0.00   0.063
  S58                        9.91       0.00       0.00       5.06       0.62        0.03     0.01   0.063
  S59                        9.91       0.00       0.00       5.06       0.62        0.02     0.01   0.063
  S60                        9.91       0.00       0.00       2.12       0.99        0.03     0.01   0.100
  S61                        9.91       0.00       0.00       2.12       1.00        0.01     0.00   0.101
  S62                        9.91       0.00       0.00       2.12       1.00        0.03     0.02   0.101
  S63                        7.37       0.00       0.00       1.11       0.30        0.00     0.00   0.041
  S64                        7.37       0.00       0.00       1.11       0.30        0.00     0.00   0.041
  S65                        7.37       0.00       0.00       1.11       0.29        0.05     0.01   0.040
  
  
  ****************************
  Subcatchment Washoff Summary
  ****************************
  
  --------------------------------------------------------------
                                 TSS            TP           TDP
  Subcatchment                    kg            kg            kg
  --------------------------------------------------------------
  S0                           0.000         0.002         0.000
  S1                         701.339         0.015         0.092
  S2                        1036.410         0.198         0.334
  S3                          60.537         0.006         0.039
  S4                         754.479         0.049         0.225
  S6                         110.468         0.015         0.081
  S7                        3434.745         7.468         9.667
  S8                           2.820         0.000         0.000
  S9                           2.466         0.000         0.000
  S10                         23.555         0.001         0.006
  S11                          0.015         0.000         0.000
  S12                          0.696         0.000         0.000
  S13                        347.886         0.013         0.105
  S14                         15.464         0.029         0.003
  S16                        643.978         0.584         0.828
  S17                       1032.408         0.251         0.173
  S18                          1.227         0.000         0.000
  S19                        138.425         0.101         0.008
  S20                         19.642         0.012         0.002
  S21                       4816.084         8.198        19.372
  S22                         12.732         0.001         0.001
  S23                         56.938         0.117         0.007
  S24                         97.465         0.012         0.034
  S25                         73.951         0.080         0.009
  S27                         50.548         0.016         0.006
  S28                          0.002         0.000         0.000
  S29                          0.002         0.002         0.000
  S30                          0.015         0.000         0.000
  S31                          0.035         0.000         0.000
  S32                         28.025         0.024         0.003
  S33                        121.840         0.016         0.025
  S34                       3302.656         2.355         7.169
  S35                         32.888         0.012         0.004
  S36                         74.379         0.068         0.008
  S37                         20.440         0.021         0.001
  S39                        624.019         0.445         0.035
  S40                         94.618         0.136         0.004
  S41                        536.415         0.069         0.041
  S42                        606.226         0.130         0.025
  S43                        106.559         0.117         0.003
  S44                       1213.637         0.386         0.047
  S45                          7.298         0.001         0.006
  S47                        598.227         0.272         0.796
  S48                         43.121         0.004         0.039
  S49                       2783.798         1.502         3.676
  S51                        157.740         0.080         0.071
  S52                        984.859         0.546         1.620
  S53                       1907.840         1.208         3.910
  S54                       1501.514         0.684         1.109
  S55                       2544.148         1.223         2.463
  S56                          1.501         0.002         0.006
  S57                        159.946         0.081         0.068
  S58                        591.652         0.268         0.861
  S59                        340.831         0.180         0.575
  S60                        410.097         0.251         0.152
  S61                        134.330         0.062         0.082
  S62                        385.836         0.248         0.154
  S63                         62.893         0.081         0.040
  S64                         48.574         0.111         0.011
  S65                       1011.390         0.432         0.230
  --------------------------------------------------------------
  System                   33871.631        28.183        54.222
  
  
  ******************
  Node Depth Summary
  ******************
  
  ---------------------------------------------------------------------------------
                                 Average  Maximum  Maximum  Time of Max    Reported
                                   Depth    Depth      HGL   Occurrence   Max Depth
  Node                 Type       Meters   Meters   Meters  days hr:min      Meters
  ---------------------------------------------------------------------------------
  FID1936              JUNCTION     0.05     0.26  1376.56     2  04:20        0.08
  FID1955              JUNCTION     0.05     0.23  1376.15     2  04:30        0.07
  FID1960              JUNCTION     0.05     0.22  1376.08     2  04:30        0.07
  FID1965              JUNCTION     0.05     0.21  1376.51     2  04:30        0.06
  FID1968              JUNCTION     0.04     0.19  1376.59     2  04:15        0.06
  FID2239              JUNCTION     0.04     0.19  1374.70     2  03:30        0.06
  FID2241              JUNCTION     0.04     0.17  1373.30     2  03:30        0.05
  FID2242              JUNCTION     0.04     0.17  1374.21     2  03:30        0.05
  FID2244              JUNCTION     0.04     0.16  1374.52     2  03:30        0.05
  FID2440              JUNCTION     0.29     0.34  1374.59     2  04:30        0.10
  FID2442              JUNCTION     0.00     0.00  1375.27     0  00:00        0.00
  FID2446              JUNCTION     0.05     0.26  1376.06     2  04:20        0.08
  FID2447              JUNCTION     0.05     0.24  1375.94     2  04:20        0.07
  FID2455              JUNCTION     0.19     0.23  1374.22     2  04:35        0.07
  FID2711              JUNCTION     0.04     0.17  1370.35     2  03:50        0.05
  FID2719              JUNCTION     0.04     0.21  1370.31     2  04:05        0.06
  FID2720              JUNCTION     0.04     0.21  1370.41     2  03:50        0.06
  FID2824              JUNCTION     0.02     0.16  1371.44     2  04:13        0.05
  FID2827              JUNCTION     0.02     0.17  1371.47     2  04:10        0.05
  FID2828              JUNCTION     0.03     0.17  1371.49     2  03:51        0.05
  FID2832              JUNCTION     0.04     0.19  1370.79     2  04:10        0.06
  FID2833              JUNCTION     0.05     0.23  1370.85     2  04:10        0.07
  FID2839              JUNCTION     0.05     0.31  1371.51     2  04:10        0.10
  FID2873              JUNCTION     0.04     0.18  1370.88     2  04:10        0.05
  FID2964              JUNCTION     0.05     0.26  1371.04     2  04:10        0.08
  FID2965              JUNCTION     0.28     0.45  1370.72     2  04:26        0.14
  FID4584              JUNCTION     0.00     0.00  1371.34     0  00:00        0.00
  FID5068              JUNCTION     0.03     0.16  1375.54     2  03:30        0.05
  FID5072              JUNCTION     0.33     0.40  1373.69     2  04:53        0.12
  FID5140              JUNCTION     0.05     0.31  1373.53     2  04:20        0.09
  FID5435              JUNCTION     0.05     0.31  1373.06     2  04:05        0.10
  FID5437              JUNCTION     0.02     0.16  1373.11     2  04:05        0.05
  FID5503              JUNCTION     0.01     0.04  1371.37     2  09:00        0.01
  FID5504              JUNCTION     0.04     0.17  1371.53     2  04:10        0.05
  FID5527              JUNCTION     0.04     0.17  1372.67     2  03:30        0.05
  FID5568              JUNCTION     0.33     0.39  1372.78     2  05:00        0.12
  FID5784              JUNCTION     0.34     0.40  1372.39     2  05:06        0.12
  FID5785              JUNCTION     0.04     0.18  1374.61     2  03:31        0.05
  AFID6926             JUNCTION     0.04     0.17  1369.97     2  04:15        0.05
  AFID7360             JUNCTION     0.32     0.53  1370.66     2  04:27        0.16
  AFID7363             JUNCTION     0.30     0.51  1370.68     2  04:27        0.16
  AFID7376             JUNCTION     0.05     0.20  1371.43     2  04:10        0.06
  AFID7377             JUNCTION     0.29     0.42  1371.10     2  04:25        0.13
  AFID7705             JUNCTION     0.41     0.45  1375.41     2  04:30        0.14
  AFID7706             JUNCTION     0.47     0.50  1375.42     2  04:30        0.15
  AFID7792             JUNCTION     0.05     0.19  1374.99     2  03:30        0.06
  AFID8223             JUNCTION     0.34     0.40  1372.40     2  05:06        0.12
  J1                   JUNCTION     0.63     0.64  1375.63     2  04:30        0.20
  FID4901              JUNCTION     0.36     0.39  1375.46     2  04:32        0.12
  J9                   JUNCTION     0.52     0.53  1375.62     2  04:31        0.16
  J11                  JUNCTION     0.37     0.38  1375.58     2  04:31        0.12
  J12                  JUNCTION     0.36     0.38  1375.49     2  04:31        0.12
  J13                  JUNCTION     0.35     0.38  1375.46     2  04:32        0.12
  FID4902              JUNCTION     0.38     0.40  1375.45     2  04:32        0.12
  J14                  JUNCTION     0.29     0.33  1375.24     2  04:21        0.10
  J15                  JUNCTION     0.26     0.31  1374.97     2  04:23        0.09
  J16                  JUNCTION     0.27     0.32  1374.96     2  04:23        0.10
  FID2449              JUNCTION     0.29     0.35  1374.66     2  04:29        0.11
  J17                  JUNCTION     0.16     0.20  1374.18     2  04:37        0.06
  J19                  JUNCTION     0.27     0.33  1373.88     2  04:48        0.10
  FID5069              JUNCTION     0.36     0.43  1373.69     2  04:53        0.13
  FID5139              JUNCTION     0.34     0.40  1372.76     2  04:20        0.12
  J24                  JUNCTION     0.34     0.40  1372.77     2  04:21        0.12
  FID4984              JUNCTION     0.37     0.42  1372.38     2  05:06        0.13
  FID2669              JUNCTION     0.26     0.41  1368.85     2  04:35        0.13
  FID2712              JUNCTION     0.27     0.44  1369.63     2  04:33        0.13
  FID2718              JUNCTION     0.27     0.44  1369.68     2  04:33        0.13
  FID2838              JUNCTION     0.42     0.64  1370.58     2  04:22        0.20
  FID2825              JUNCTION     0.47     0.70  1370.60     2  04:23        0.21
  FID2823              JUNCTION     0.52     0.75  1370.62     2  04:28        0.23
  FID5505              JUNCTION     0.39     0.62  1370.64     2  04:28        0.19
  FID5436              JUNCTION     0.39     0.53  1371.85     2  04:20        0.16
  FID5438              JUNCTION     0.30     0.44  1371.86     2  04:21        0.13
  J49                  JUNCTION     0.39     0.42  1375.44     2  04:31        0.13
  J50                  JUNCTION     0.43     0.47  1375.43     2  04:31        0.14
  J51                  JUNCTION     0.49     0.53  1375.42     2  04:31        0.16
  J52                  JUNCTION     0.50     0.54  1375.42     2  04:30        0.16
  J53                  JUNCTION     0.29     0.33  1375.25     2  04:35        0.10
  J54                  JUNCTION     0.30     0.33  1375.28     2  04:35        0.10
  J55                  JUNCTION     0.34     0.38  1375.40     2  04:31        0.12
  J56                  JUNCTION     0.32     0.36  1375.38     2  04:31        0.11
  J57                  JUNCTION     0.30     0.33  1375.36     2  04:32        0.10
  J58                  JUNCTION     0.30     0.33  1375.31     2  04:34        0.10
  FID1935              JUNCTION     0.30     0.34  1375.23     2  04:20        0.10
  J59                  JUNCTION     0.30     0.34  1375.21     2  04:21        0.10
  J60                  JUNCTION     0.29     0.33  1375.15     2  04:22        0.10
  J61                  JUNCTION     0.28     0.31  1375.08     2  04:23        0.10
  J62                  JUNCTION     0.26     0.30  1375.05     2  04:23        0.09
  J63                  JUNCTION     0.27     0.32  1375.00     2  04:23        0.10
  J64                  JUNCTION     0.26     0.31  1374.92     2  04:23        0.09
  J65                  JUNCTION     0.22     0.27  1374.84     2  04:25        0.08
  J66                  JUNCTION     0.29     0.34  1374.55     2  04:31        0.10
  J67                  JUNCTION     0.29     0.34  1374.49     2  04:32        0.10
  J68                  JUNCTION     0.29     0.33  1374.40     2  04:32        0.10
  J69                  JUNCTION     0.37     0.43  1374.16     2  04:37        0.13
  J70                  JUNCTION     0.36     0.42  1374.07     2  04:40        0.13
  J71                  JUNCTION     0.35     0.40  1373.99     2  04:43        0.12
  J72                  JUNCTION     0.35     0.41  1373.76     2  04:52        0.13
  J73                  JUNCTION     0.36     0.43  1373.65     2  04:53        0.13
  J74                  JUNCTION     0.36     0.43  1373.41     2  04:56        0.13
  J75                  JUNCTION     0.38     0.44  1373.29     2  04:58        0.13
  J76                  JUNCTION     0.34     0.40  1372.74     2  04:20        0.12
  J77                  JUNCTION     0.34     0.41  1372.61     2  04:21        0.12
  J78                  JUNCTION     0.34     0.40  1372.47     2  04:22        0.12
  J79                  JUNCTION     0.34     0.40  1372.41     2  05:06        0.12
  J80                  JUNCTION     0.28     0.39  1371.88     2  04:21        0.12
  J81                  JUNCTION     0.39     0.52  1371.52     2  04:22        0.16
  J82                  JUNCTION     0.40     0.52  1371.45     2  04:23        0.16
  J83                  JUNCTION     0.30     0.44  1371.24     2  04:24        0.13
  J84                  JUNCTION     0.27     0.39  1371.03     2  04:25        0.12
  J85                  JUNCTION     0.27     0.39  1370.91     2  04:26        0.12
  J86                  JUNCTION     0.27     0.41  1370.79     2  04:27        0.13
  J87                  JUNCTION     0.29     0.49  1370.68     2  04:27        0.15
  J88                  JUNCTION     0.38     0.60  1370.64     2  04:28        0.18
  J89                  JUNCTION     0.42     0.65  1370.64     2  04:28        0.20
  J90                  JUNCTION     0.38     0.61  1370.56     2  04:23        0.19
  J91                  JUNCTION     0.38     0.61  1370.50     2  04:23        0.19
  J92                  JUNCTION     0.38     0.61  1370.45     2  04:24        0.19
  J93                  JUNCTION     0.38     0.61  1370.33     2  04:30        0.19
  J94                  JUNCTION     0.38     0.61  1370.26     2  04:30        0.18
  J95                  JUNCTION     0.38     0.61  1370.24     2  04:30        0.18
  J96                  JUNCTION     0.38     0.60  1370.16     2  04:30        0.18
  J97                  JUNCTION     0.38     0.59  1370.09     2  04:31        0.18
  J98                  JUNCTION     0.37     0.58  1370.03     2  04:31        0.18
  J99                  JUNCTION     0.37     0.57  1369.97     2  04:31        0.17
  J100                 JUNCTION     0.36     0.56  1369.92     2  04:31        0.17
  J101                 JUNCTION     0.35     0.53  1369.86     2  04:32        0.16
  J102                 JUNCTION     0.27     0.44  1369.71     2  04:33        0.13
  J103                 JUNCTION     0.27     0.44  1369.66     2  04:33        0.13
  J104                 JUNCTION     0.27     0.43  1369.59     2  04:33        0.13
  J105                 JUNCTION     0.27     0.43  1369.55     2  04:33        0.13
  J106                 JUNCTION     0.26     0.41  1369.49     2  04:34        0.13
  J107                 JUNCTION     0.26     0.41  1369.35     2  04:34        0.13
  J108                 JUNCTION     0.26     0.41  1369.21     2  04:34        0.13
  J109                 JUNCTION     0.26     0.41  1369.10     2  04:34        0.13
  J110                 JUNCTION     0.26     0.41  1369.00     2  04:35        0.13
  J111                 JUNCTION     0.26     0.41  1368.89     2  04:35        0.13
  J112                 JUNCTION     0.26     0.41  1368.74     2  04:35        0.13
  J113                 JUNCTION     0.26     0.41  1368.64     2  04:35        0.13
  J114                 JUNCTION     0.26     0.41  1368.53     2  04:36        0.13
  J115                 JUNCTION     0.26     0.41  1368.47     2  04:36        0.13
  J116                 JUNCTION     0.26     0.41  1368.40     2  04:36        0.13
  J117                 JUNCTION     0.26     0.41  1368.29     2  04:36        0.13
  J118                 JUNCTION     0.26     0.42  1368.19     2  04:36        0.13
  J119                 JUNCTION     0.26     0.42  1368.13     2  04:37        0.13
  J120                 JUNCTION     0.30     0.44  1368.04     2  04:37        0.13
  FID2451              JUNCTION     0.28     0.34  1374.62     2  04:30        0.10
  J121                 JUNCTION     0.27     0.41  1371.15     2  04:24        0.12
  J122                 JUNCTION     0.28     0.41  1371.13     2  04:24        0.13
  FID3706              JUNCTION     0.38     0.61  1370.35     2  04:30        0.19
  FID2831              JUNCTION     0.38     0.60  1370.23     2  04:30        0.18
  FID2689              OUTFALL      0.22     0.36  1367.86     2  04:37        0.11
  
  
  *******************
  Node Inflow Summary
  *******************
  
  -------------------------------------------------------------------------------------------------
                                  Maximum  Maximum                  Lateral       Total        Flow
                                  Lateral    Total  Time of Max      Inflow      Inflow     Balance
                                   Inflow   Inflow   Occurrence      Volume      Volume       Error
  Node                 Type           CMS      CMS  days hr:min    10^6 ltr    10^6 ltr     Percent
  -------------------------------------------------------------------------------------------------
  FID1936              JUNCTION     0.056    0.056     2  04:20      0.0421      0.0421       0.408
  FID1955              JUNCTION     0.048    0.048     2  04:30       0.101       0.101       0.173
  FID1960              JUNCTION     0.029    0.029     2  04:30      0.0587      0.0587       0.296
  FID1965              JUNCTION     0.012    0.012     2  04:30      0.0253      0.0253       0.692
  FID1968              JUNCTION     0.005    0.005     2  04:15     0.00623     0.00623       2.879
  FID2239              JUNCTION     0.001    0.001     2  03:30     0.00381     0.00381       6.499
  FID2241              JUNCTION     0.000    0.001     2  03:30           0     0.00295       6.063
  FID2242              JUNCTION     0.001    0.001     2  03:30     0.00314     0.00314       6.277
  FID2244              JUNCTION     0.000    0.000     2  03:30     0.00134     0.00134      15.010
  FID2440              JUNCTION     0.000    0.581     2  04:29           0        85.8       0.033
  FID2442              JUNCTION     0.000    0.000     0  00:00           0           0       0.000 ltr
  FID2446              JUNCTION     0.023    0.023     2  04:20      0.0177      0.0177       1.390
  FID2447              JUNCTION     0.000    0.023     2  04:20           0      0.0175       0.805
  FID2455              JUNCTION     0.004    0.578     2  04:33      0.0125        85.7       0.030
  FID2711              JUNCTION     0.000    0.002     2  03:50           0     0.00337       4.933
  FID2719              JUNCTION     0.009    0.009     2  04:05      0.0167      0.0167       1.046
  FID2720              JUNCTION     0.002    0.002     2  04:05     0.00359     0.00359       6.536
  FID2824              JUNCTION     0.000    0.000     2  04:10    4.75e-05    0.000371      87.692
  FID2827              JUNCTION     0.000    0.000     2  03:54    5.38e-05    0.000504      55.829
  FID2828              JUNCTION     0.000    0.000     2  03:30    0.000635    0.000635      41.049
  FID2832              JUNCTION     0.000    0.009     2  04:10           0       0.041       0.434
  FID2833              JUNCTION     0.009    0.009     2  04:10      0.0412      0.0412       0.513
  FID2839              JUNCTION     0.230    0.230     2  04:10       0.923       0.923       0.020
  FID2873              JUNCTION     0.001    0.001     2  04:10     0.00541     0.00541       3.321
  FID2964              JUNCTION     0.028    0.028     2  04:10       0.131       0.131       0.125
  FID2965              JUNCTION     0.000    0.909     2  04:27           0        85.8       0.041
  FID4584              JUNCTION     0.000    0.000     0  00:00           0           0       0.000 ltr
  FID5068              JUNCTION     0.000    0.000     2  03:30    0.000648    0.000648      36.778
  FID5072              JUNCTION     0.006    0.567     2  04:51      0.0183        85.2       0.029
  FID5140              JUNCTION     0.130    0.130     2  04:20       0.296       0.296       0.056
  FID5435              JUNCTION     0.332    0.332     2  04:05        1.38        1.38       0.014
  FID5437              JUNCTION     0.000    0.000     2  03:20    0.000276    0.000276     172.096
  FID5503              JUNCTION     0.000    0.000     2  04:10    5.08e-05    5.08e-05      50.818 ltr
  FID5504              JUNCTION     0.003    0.003     2  04:10      0.0144      0.0144       1.224
  FID5527              JUNCTION     0.001    0.001     2  03:30     0.00413     0.00413       4.351
  FID5568              JUNCTION     0.000    0.564     2  04:58    0.000832        84.9       0.101
  FID5784              JUNCTION     0.000    0.600     2  04:22           0          85       0.016
  FID5785              JUNCTION     0.000    0.001     2  03:30           0     0.00358       4.586
  AFID6926             JUNCTION     0.004    0.004     2  04:15      0.0174      0.0174       0.996
  AFID7360             JUNCTION     0.000    0.909     2  04:27    2.54e-05        85.8       0.030
  AFID7363             JUNCTION     0.000    0.909     2  04:27           0        85.8       0.015
  AFID7376             JUNCTION     0.008    0.008     2  04:10      0.0367      0.0367       0.374
  AFID7377             JUNCTION     0.000    0.894     2  04:24           0        85.8       0.017
  AFID7705             JUNCTION     0.000    0.519     2  04:30           0        86.4       0.038
  AFID7706             JUNCTION     0.000    0.494     2  04:32           0        86.3       0.037
  AFID7792             JUNCTION     0.008    0.008     2  03:30      0.0278      0.0278       0.618
  AFID8223             JUNCTION     0.000    0.600     2  04:22           0          85       0.003
  J1                   JUNCTION     0.666    0.666     0  22:00         132         132       0.021
  FID4901              JUNCTION     0.000    0.457     2  04:30           0        86.6       0.031
  J9                   JUNCTION     0.000    0.666     0  22:00           0         132       0.041
  J11                  JUNCTION     0.000    0.666     0  22:00           0         132       0.067
  J12                  JUNCTION     0.009    0.670     2  04:30      0.0158         132       0.074
  J13                  JUNCTION    -0.220    0.667     2  04:31       -45.1         132      -0.028
  FID4902              JUNCTION     0.000    0.459     2  04:30           0        86.6       0.049
  J14                  JUNCTION     0.092    0.534     2  04:35       0.087        86.2       0.027
  J15                  JUNCTION     0.110    0.597     2  04:22       0.117        86.1       0.023
  J16                  JUNCTION     0.003    0.595     2  04:22     0.00126        86.1       0.023
  FID2449              JUNCTION     0.000    0.590     2  04:25    0.000203          86       0.179
  J17                  JUNCTION     0.005    0.578     2  04:33      0.0168        85.7       0.013
  J19                  JUNCTION     0.001    0.574     2  04:40     0.00419        85.5       0.173
  FID5069              JUNCTION     0.000    0.566     2  04:51           0        85.2       0.027
  FID5139              JUNCTION     0.000    0.599     2  04:20           0        85.1       0.008
  J24                  JUNCTION     0.001    0.564     2  05:00     0.00288        84.8       0.012
  FID4984              JUNCTION     0.000    0.600     2  04:22           0          85       0.126
  FID2669              JUNCTION     0.000    1.053     2  04:35           0        86.1       0.011
  FID2712              JUNCTION     0.000    1.052     2  04:33           0        86.2       0.014
  FID2718              JUNCTION     0.000    1.052     2  04:32           0        86.2       0.010
  FID2838              JUNCTION     0.000    1.060     2  04:20           0        86.5       0.031
  FID2825              JUNCTION     0.000    0.914     2  04:32           0        85.6       0.052
  FID2823              JUNCTION     0.000    0.911     2  04:28           0        85.7       0.079
  FID5505              JUNCTION     0.000    0.911     2  04:27           0        85.7       0.020
  FID5436              JUNCTION     0.000    0.905     2  04:20           0        86.2       0.122
  FID5438              JUNCTION     0.000    0.605     2  04:25           0        84.8       0.022
  J49                  JUNCTION     0.000    0.457     2  04:30           0        86.5       0.078
  J50                  JUNCTION     0.000    0.456     2  04:34      0.0001        86.5       0.138
  J51                  JUNCTION     0.000    0.460     2  04:35           0        86.4       0.113
  J52                  JUNCTION     0.000    0.463     2  04:36           0        86.3       0.034
  J53                  JUNCTION     0.000    0.515     2  04:32           0        86.1       0.027
  J54                  JUNCTION     0.000    0.516     2  04:31           0        86.2       0.040
  J55                  JUNCTION     0.000    0.518     2  04:30           0        86.3       0.040
  J56                  JUNCTION     0.000    0.517     2  04:30           0        86.3       0.043
  J57                  JUNCTION     0.000    0.515     2  04:30           0        86.3       0.052
  J58                  JUNCTION     0.004    0.518     2  04:31     0.00862        86.2       0.056
  FID1935              JUNCTION     0.000    0.576     2  04:20           0        86.2       0.035
  J59                  JUNCTION     0.000    0.567     2  04:20           0        86.2       0.047
  J60                  JUNCTION     0.010    0.560     2  04:20     0.00655        86.2       0.073
  J61                  JUNCTION     0.000    0.546     2  04:22           0        86.1       0.049
  J62                  JUNCTION     0.000    0.543     2  04:23           0        86.1       0.022
  J63                  JUNCTION     0.000    0.543     2  04:24           0          86       0.022
  J64                  JUNCTION     0.000    0.594     2  04:22           0        86.1       0.024
  J65                  JUNCTION     0.020    0.604     2  04:22      0.0254        86.1       0.134
  J66                  JUNCTION     0.000    0.580     2  04:29           0        85.8       0.042
  J67                  JUNCTION     0.000    0.579     2  04:30           0        85.8       0.063
  J68                  JUNCTION     0.001    0.578     2  04:31     0.00239        85.7       0.070
  J69                  JUNCTION     0.000    0.577     2  04:34           0        85.7       0.068
  J70                  JUNCTION     0.001    0.576     2  04:36      0.0046        85.6       0.087
  J71                  JUNCTION     0.000    0.574     2  04:38           0        85.5       0.063
  J72                  JUNCTION     0.001    0.569     2  04:47     0.00271        85.3       0.202
  J73                  JUNCTION     0.000    0.566     2  04:52           0        85.1       0.057
  J74                  JUNCTION     0.000    0.566     2  04:53           0        85.1       0.083
  J75                  JUNCTION     0.001    0.565     2  04:55     0.00311          85       0.129
  J76                  JUNCTION     0.000    0.598     2  04:20           0        85.1       0.032
  J77                  JUNCTION     0.009    0.604     2  04:20      0.0495        85.1       0.060
  J78                  JUNCTION     0.000    0.601     2  04:21           0        85.1       0.045
  J79                  JUNCTION     0.000    0.600     2  04:22           0          85       0.017
  J80                  JUNCTION     0.001    0.595     2  04:23     0.00326        84.9       0.097
  J81                  JUNCTION     0.000    0.896     2  04:20     0.00104        86.1       0.192
  J82                  JUNCTION     0.000    0.891     2  04:22           0        85.9       0.077
  J83                  JUNCTION     0.000    0.890     2  04:23           0        85.9       0.053
  J84                  JUNCTION     0.000    0.894     2  04:24           0        85.8       0.029
  J85                  JUNCTION     0.000    0.894     2  04:25           0        85.8       0.055
  J86                  JUNCTION     0.000    0.893     2  04:26           0        85.7       0.056
  J87                  JUNCTION     0.000    0.910     2  04:27     0.00113        85.8       0.023
  J88                  JUNCTION     0.000    0.909     2  04:27           0        85.7       0.036
  J89                  JUNCTION     0.000    0.911     2  04:28           0        85.7       0.056
  J90                  JUNCTION     0.000    1.056     2  04:20           0        86.4       0.020
  J91                  JUNCTION     0.000    1.053     2  04:20           0        86.4       0.028
  J92                  JUNCTION     0.000    1.050     2  04:22    0.000129        86.4       0.034
  J93                  JUNCTION     0.000    1.048     2  04:23           0        86.4       0.018
  J94                  JUNCTION     0.000    1.047     2  04:24    8.98e-05        86.3       0.021
  J95                  JUNCTION     0.000    1.047     2  04:24           0        86.3       0.008
  J96                  JUNCTION     0.000    1.050     2  04:25           0        86.3       0.031
  J97                  JUNCTION     0.000    1.050     2  04:30           0        86.3       0.026
  J98                  JUNCTION     0.000    1.050     2  04:31           0        86.3       0.023
  J99                  JUNCTION     0.000    1.050     2  04:31           0        86.3       0.020
  J100                 JUNCTION     0.000    1.050     2  04:31           0        86.2       0.017
  J101                 JUNCTION     0.000    1.050     2  04:31           0        86.2       0.020
  J102                 JUNCTION     0.000    1.050     2  04:31           0        86.2       0.015
  J103                 JUNCTION     0.000    1.052     2  04:33           0        86.2       0.011
  J104                 JUNCTION     0.000    1.052     2  04:33           0        86.2       0.015
  J105                 JUNCTION     0.000    1.052     2  04:33           0        86.2       0.019
  J106                 JUNCTION     0.000    1.052     2  04:33           0        86.2       0.021
  J107                 JUNCTION     0.000    1.052     2  04:34           0        86.1       0.021
  J108                 JUNCTION     0.000    1.052     2  04:34    0.000148        86.1       0.019
  J109                 JUNCTION     0.000    1.052     2  04:34           0        86.1       0.016
  J110                 JUNCTION     0.000    1.052     2  04:34           0        86.1       0.015
  J111                 JUNCTION     0.000    1.052     2  04:35    1.42e-05        86.1       0.011
  J112                 JUNCTION     0.000    1.053     2  04:35           0        86.1       0.016
  J113                 JUNCTION     0.000    1.053     2  04:35           0        86.1       0.016
  J114                 JUNCTION     0.000    1.053     2  04:35           0        86.1       0.013
  J115                 JUNCTION     0.000    1.053     2  04:36           0          86       0.010
  J116                 JUNCTION     0.000    1.053     2  04:36    0.000174          86       0.013
  J117                 JUNCTION     0.000    1.053     2  04:36           0          86       0.016
  J118                 JUNCTION     0.000    1.053     2  04:36           0          86       0.013
  J119                 JUNCTION     0.000    1.053     2  04:36           0          86       0.013
  J120                 JUNCTION     0.000    1.053     2  04:37           0          86       0.016
  FID2451              JUNCTION     0.000    0.580     2  04:28           0        85.8       0.032
  J121                 JUNCTION     0.000    0.890     2  04:24     0.00102        85.8       0.016
  J122                 JUNCTION     0.000    0.890     2  04:24    3.84e-05        85.8       0.015
  FID3706              JUNCTION     0.000    1.049     2  04:23           0        86.4       0.028
  FID2831              JUNCTION     0.000    1.051     2  04:24           0        86.4       0.018
  FID2689              OUTFALL      0.000    1.053     2  04:37           0          86       0.000
  
  
  **********************
  Node Surcharge Summary
  **********************
  
  No nodes were surcharged.
  
  
  *********************
  Node Flooding Summary
  *********************
  
  No nodes were flooded.
  
  
  ***********************
  Outfall Loading Summary
  ***********************
  
  -----------------------------------------------------------------------------------------------------
                         Flow       Avg       Max       Total         Total         Total         Total
                         Freq      Flow      Flow      Volume           TSS            TP           TDP
  Outfall Node           Pcnt       CMS       CMS    10^6 ltr            kg            kg            kg
  -----------------------------------------------------------------------------------------------------
  FID2689               97.20     0.442     1.053      85.975     22968.645        29.270        53.654
  -----------------------------------------------------------------------------------------------------
  System                97.20     0.442     1.053      85.975     22968.645        29.270        53.654
  
  
  ********************
  Link Flow Summary
  ********************
  
  -----------------------------------------------------------------------------
                                 Maximum  Time of Max   Maximum    Max/    Max/
                                  |Flow|   Occurrence   |Veloc|    Full    Full
  Link                 Type          CMS  days hr:min     m/sec    Flow   Depth
  -----------------------------------------------------------------------------
  FID1123              CONDUIT     0.001     2  04:10      0.41    0.01    0.08
  FID1139              CONDUIT     0.009     2  04:05      0.85    0.05    0.15
  FID1148              CONDUIT     0.009     2  04:10      0.44    0.02    0.07
  FID1149              CONDUIT     0.009     2  04:10      1.24    0.00    0.09
  FID3364              CONDUIT     0.008     2  04:10      0.19    0.00    0.17
  FID3671              CONDUIT     0.005     2  04:15      1.10    0.03    0.11
  FID3672              CONDUIT     0.012     2  04:30      1.45    0.07    0.17
  FID3762              CONDUIT     0.029     2  04:30      1.70    0.06    0.21
  FID3765              CONDUIT     0.048     2  04:30      2.13    0.10    0.25
  FID4112              CONDUIT     0.056     2  04:20      1.55    0.07    0.18
  FID4186              CONDUIT     0.001     2  03:30      0.58    0.00    0.05
  FID4187              CONDUIT     0.001     2  03:30      0.91    0.00    0.03
  FID4201              CONDUIT     0.023     2  04:20      0.88    0.17    0.28
  FID4202              CONDUIT     0.023     2  04:20      1.12    0.12    0.24
  FID4203              CONDUIT     0.000     0  00:00      0.00    0.00    0.05
  FID4299              CONDUIT     0.000     2  03:30      0.44    0.00    0.02
  FID4372              CONDUIT     0.130     2  04:20      1.08    0.05    0.19
  FID4498              CONDUIT     0.028     2  04:10      0.65    0.11    0.43
  FID4806              CONDUIT     0.332     2  04:05      4.29    0.07    0.18
  FID4807              CONDUIT     0.000     2  04:05      0.39    0.00    0.01
  FID4882              CONDUIT     0.000     0  00:00      0.00    0.00    0.37
  FID4884              CONDUIT     0.003     2  04:10      0.94    0.00    0.02
  FID4914              CONDUIT     0.001     2  03:30      0.03    0.00    0.50
  FID4915              CONDUIT     0.000     2  03:54      0.12    0.00    0.05
  FID4916              CONDUIT     0.000     2  04:10      0.12    0.00    0.03
  FID4917              CONDUIT     0.000     2  04:13      0.06    0.00    0.13
  FID5307              CONDUIT     0.001     2  03:30      0.28    0.02    0.08
  FID5308              CONDUIT     0.000     2  03:30      0.67    0.00    0.03
  FID5312              CONDUIT     0.001     2  03:31      0.37    0.01    0.05
  FID5865              CONDUIT     0.230     2  04:10      3.27    0.10    0.21
  C9                   CHANNEL     0.666     0  22:00      0.74    0.05    0.41
  C12                  CHANNEL     0.666     0  22:01      0.55    0.21    0.44
  C13                  CHANNEL     0.667     2  04:31      1.16    0.21    0.44
  C14                  CHANNEL     0.447     2  04:34      1.07    0.14    0.45
  C52                  CONDUIT     0.008     2  03:30      0.28    0.01    0.18
  C130                 CONDUIT     0.002     2  03:50      0.25    0.03    0.09
  C131                 CONDUIT     0.002     2  03:50      0.87    0.00    0.05
  C139                 CONDUIT     0.000     0  00:00      0.00    0.00    0.06
  C191                 CHANNEL     0.457     2  04:30      0.53    0.15    0.48
  C193                 CHANNEL     0.460     2  04:35      0.45    0.15    0.58
  C194                 CHANNEL     0.463     2  04:36      0.35    0.15    0.62
  C195                 CHANNEL     0.464     2  04:36      0.41    0.07    0.49
  C196                 CONDUIT     0.456     2  04:30      0.41    0.24    0.50
  C197                 CONDUIT     0.494     2  04:32      0.28    0.17    0.68
  C198                 CHANNEL     0.518     2  04:30      0.31    0.07    0.39
  C199                 CHANNEL     0.517     2  04:30      0.35    1.65    0.44
  C200                 CHANNEL     0.515     2  04:30      0.38    1.49    0.41
  C201                 CHANNEL     0.515     2  04:31      0.39    0.11    0.33
  C202                 CHANNEL     0.516     2  04:31      0.40    0.11    0.33
  C203                 CHANNEL     0.515     2  04:32      0.40    0.11    0.33
  C204                 CHANNEL     0.513     2  04:31      0.93    0.11    0.33
  C205                 CONDUIT     0.533     2  04:35      0.34    0.27    0.41
  C206                 CHANNEL     0.567     2  04:20      0.44    0.12    0.34
  C207                 CHANNEL     0.557     2  04:20      0.42    0.12    0.34
  C208                 CHANNEL     0.546     2  04:22      0.44    0.12    0.32
  C209                 CHANNEL     0.543     2  04:23      0.46    0.12    0.31
  C210                 CHANNEL     0.543     2  04:24      0.56    0.12    0.36
  C211                 CHANNEL     0.544     2  04:24      0.54    0.14    0.32
  C212                 CONDUIT     0.595     2  04:22      0.39    0.25    0.38
  C213                 CHANNEL     0.594     2  04:22      0.55    0.16    0.32
  C214                 CHANNEL     0.593     2  04:23      1.24    0.16    0.29
  C215                 CONDUIT     0.590     2  04:25      0.40    0.25    0.37
  C216                 CONDUIT     0.578     2  04:28      0.51    0.31    0.32
  C217                 CONDUIT     0.579     2  04:29      0.44    0.17    0.25
  C218                 CHANNEL     0.580     2  04:29      0.49    0.15    0.35
  C219                 CHANNEL     0.579     2  04:30      0.49    0.15    0.35
  C220                 CHANNEL     0.578     2  04:32      0.50    0.15    0.34
  C221                 CHANNEL     0.577     2  04:33      0.61    0.15    0.29
  C222                 CONDUIT     0.577     2  04:33      0.62    0.28    0.27
  C223                 CHANNEL     0.577     2  04:34      2.11    0.05    0.28
  C224                 CHANNEL     0.576     2  04:36      0.52    0.27    0.50
  C225                 CHANNEL     0.574     2  04:38      0.51    0.27    0.48
  C226                 CHANNEL     0.573     2  04:40      1.30    0.27    0.43
  C227                 CONDUIT     0.569     2  04:47      0.39    0.34    0.45
  C228                 CHANNEL     0.566     2  04:51      0.69    0.17    0.38
  C229                 CONDUIT     0.566     2  04:51      0.26    0.07    0.28
  C230                 CHANNEL     0.566     2  04:52      0.65    0.17    0.40
  C231                 CHANNEL     0.566     2  04:53      0.64    0.17    0.40
  C232                 CHANNEL     0.565     2  04:55      0.70    0.17    0.41
  C233                 CHANNEL     0.564     2  04:58      0.67    0.17    0.38
  C234                 CONDUIT     0.564     2  05:00      0.46    0.17    0.29
  C235                 CHANNEL     0.564     2  05:00      0.70    0.17    0.37
  C236                 CHANNEL     0.598     2  04:20      0.82    0.21    0.42
  C237                 CHANNEL     0.595     2  04:20      0.63    0.21    0.42
  C238                 CHANNEL     0.601     2  04:21      0.65    0.21    0.42
  C239                 CHANNEL     0.600     2  04:22      0.67    0.21    0.41
  C240                 CHANNEL     0.600     2  04:22      0.81    0.21    0.41
  C241                 CHANNEL     0.600     2  04:22      0.96    0.21    0.41
  C242                 CONDUIT     0.600     2  04:22      0.60    0.15    0.34
  C243                 CHANNEL     0.595     2  04:23      0.65    0.21    0.42
  C244                 CHANNEL     0.605     2  04:25      0.94    0.07    0.27
  C245                 CONDUIT     0.608     2  04:25      0.47    0.12    0.38
  C246                 CHANNEL     0.895     2  04:21      0.58    0.21    0.46
  C247                 CHANNEL     0.891     2  04:22      0.58    0.21    0.46
  C248                 CHANNEL     0.890     2  04:23      0.66    0.21    0.42
  C249                 CHANNEL     0.890     2  04:24      7.41    0.26    0.40
  C250                 CONDUIT     0.890     2  04:24      0.68    0.24    0.32
  C251                 CONDUIT     0.890     2  04:24      0.67    0.24    0.33
  C252                 CHANNEL     0.894     2  04:24      1.85    0.26    0.38
  C253                 CHANNEL     0.894     2  04:25      1.93    0.15    0.37
  C254                 CHANNEL     0.893     2  04:26      2.53    0.15    0.38
  C255                 CHANNEL     0.893     2  04:27      2.79    0.15    0.41
  C256                 CHANNEL     0.909     2  04:27      1.91    0.15    0.45
  C257                 CHANNEL     0.909     2  04:27      5.83    0.15    0.47
  C258                 CONDUIT     0.909     2  04:27      0.64    0.24    0.41
  C259                 CHANNEL     0.909     2  04:27      1.42    0.15    0.53
  C260                 CHANNEL     0.909     2  04:27      0.86    0.15    0.57
  C261                 CHANNEL     0.911     2  04:28      1.05    0.15    0.60
  C262                 CHANNEL     0.911     2  04:28      0.59    0.15    0.66
  C263                 CHANNEL     0.914     2  04:32      0.63    0.15    0.46
  C264                 CONDUIT     0.918     2  04:33      0.45    0.35    0.49
  C265                 CHANNEL     1.056     2  04:20      0.70    0.18    0.40
  C266                 CHANNEL     1.053     2  04:20      0.76    0.15    0.43
  C267                 CHANNEL     1.050     2  04:22      0.95    0.15    0.43
  C268                 CHANNEL     1.048     2  04:23      0.76    0.15    0.43
  C269                 CHANNEL     1.048     2  04:23      0.88    0.15    0.42
  C270                 CHANNEL     1.047     2  04:24      0.76    0.15    0.42
  C271                 CHANNEL     1.047     2  04:24      0.76    0.15    0.42
  C272                 CHANNEL     1.047     2  04:25      1.12    0.15    0.42
  C273                 CHANNEL     1.050     2  04:25      0.77    0.15    0.42
  C274                 CHANNEL     1.050     2  04:30      0.78    0.15    0.42
  C275                 CHANNEL     1.050     2  04:31      0.79    0.15    0.41
  C276                 CHANNEL     1.050     2  04:31      0.81    0.15    0.40
  C277                 CHANNEL     1.050     2  04:31      0.84    0.15    0.39
  C278                 CHANNEL     1.050     2  04:31      1.05    0.15    0.38
  C279                 CHANNEL     1.050     2  04:31      1.02    0.15    0.34
  C280                 CHANNEL     1.050     2  04:31      0.74    0.26    0.45
  C281                 CHANNEL     1.052     2  04:33      0.83    0.26    0.45
  C282                 CHANNEL     1.052     2  04:33      0.75    0.26    0.45
  C283                 CHANNEL     1.052     2  04:33      0.76    0.26    0.44
  C284                 CHANNEL     1.052     2  04:33      0.77    0.26    0.44
  C285                 CHANNEL     1.052     2  04:33      0.79    0.26    0.43
  C286                 CHANNEL     1.052     2  04:34      0.98    0.19    0.42
  C287                 CHANNEL     1.052     2  04:34      0.98    0.19    0.42
  C288                 CHANNEL     1.052     2  04:34      0.98    0.19    0.42
  C289                 CHANNEL     1.052     2  04:34      0.98    0.19    0.42
  C290                 CHANNEL     1.052     2  04:35      0.98    0.19    0.42
  C291                 CHANNEL     1.052     2  04:35      0.98    0.19    0.42
  C292                 CHANNEL     1.053     2  04:35      0.98    0.19    0.42
  C293                 CHANNEL     1.053     2  04:35      0.98    0.19    0.42
  C294                 CHANNEL     1.053     2  04:35      0.98    0.19    0.42
  C295                 CHANNEL     1.053     2  04:36      0.98    0.19    0.42
  C296                 CHANNEL     1.053     2  04:36      0.98    0.19    0.42
  C297                 CHANNEL     1.053     2  04:36      0.98    0.19    0.42
  C298                 CHANNEL     1.053     2  04:36      0.98    0.19    0.42
  C299                 CHANNEL     1.053     2  04:36      0.97    0.19    0.43
  C300                 CHANNEL     1.053     2  04:37      0.93    0.19    0.44
  C301                 CHANNEL     1.053     2  04:37      1.31    0.14    0.31
  C302                 CHANNEL     0.666     0  22:00      0.65    0.07    0.35
  C303                 CHANNEL     0.456     2  04:34      0.50    0.15    0.52
  C353                 CONDUIT     0.004     2  04:15      0.94    0.00    0.02
  
  
  ***************************
  Flow Classification Summary
  ***************************
  
  -------------------------------------------------------------------------------------
                      Adjusted    ---------- Fraction of Time in Flow Class ---------- 
                       /Actual         Up    Down  Sub   Sup   Up    Down  Norm  Inlet 
  Conduit               Length    Dry  Dry   Dry   Crit  Crit  Crit  Crit  Ltd   Ctrl  
  -------------------------------------------------------------------------------------
  FID1123                 1.00   0.72  0.00  0.00  0.00  0.00  0.00  0.28  0.00  0.00
  FID1139                 1.00   0.72  0.00  0.00  0.00  0.00  0.00  0.28  0.00  0.00
  FID1148                 1.00   0.71  0.00  0.00  0.26  0.00  0.00  0.03  0.00  0.00
  FID1149                 1.00   0.71  0.00  0.00  0.03  0.00  0.00  0.25  0.03  0.00
  FID3364                 1.00   0.02  0.70  0.00  0.29  0.00  0.00  0.00  0.28  0.00
  FID3671                 1.00   0.72  0.00  0.00  0.00  0.00  0.00  0.28  0.00  0.00
  FID3672                 1.00   0.71  0.00  0.00  0.00  0.00  0.00  0.29  0.00  0.00
  FID3762                 1.00   0.00  0.73  0.00  0.25  0.01  0.00  0.00  0.28  0.00
  FID3765                 1.00   0.00  0.71  0.00  0.27  0.02  0.00  0.00  0.28  0.00
  FID4112                 1.00   0.71  0.00  0.00  0.00  0.00  0.00  0.29  0.00  0.00
  FID4186                 1.00   0.72  0.00  0.00  0.24  0.01  0.00  0.03  0.22  0.00
  FID4187                 1.00   0.72  0.00  0.00  0.00  0.00  0.00  0.28  0.00  0.00
  FID4201                 1.00   0.71  0.00  0.00  0.26  0.00  0.00  0.03  0.23  0.00
  FID4202                 1.00   0.72  0.00  0.00  0.00  0.00  0.00  0.28  0.00  0.00
  FID4203                 1.00   0.72  0.28  0.00  0.00  0.00  0.00  0.00  0.00  0.00
  FID4299                 1.00   0.90  0.00  0.00  0.00  0.00  0.00  0.10  0.00  0.00
  FID4372                 1.00   0.01  0.71  0.00  0.29  0.00  0.00  0.00  0.28  0.00
  FID4498                 1.00   0.02  0.69  0.00  0.29  0.00  0.00  0.00  0.28  0.00
  FID4806                 1.00   0.71  0.00  0.00  0.00  0.00  0.00  0.29  0.00  0.00
  FID4807                 1.00   0.90  0.00  0.00  0.00  0.00  0.00  0.10  0.00  0.00
  FID4882                 1.00   0.96  0.04  0.00  0.00  0.00  0.00  0.00  0.00  0.00
  FID4884                 1.00   0.71  0.00  0.00  0.00  0.00  0.00  0.29  0.00  0.00
  FID4914                 1.00   0.01  0.81  0.00  0.18  0.00  0.00  0.00  0.27  0.00
  FID4915                 1.00   0.90  0.00  0.00  0.10  0.00  0.00  0.01  0.09  0.00
  FID4916                 1.00   0.90  0.00  0.00  0.09  0.00  0.00  0.01  0.05  0.00
  FID4917                 1.00   0.91  0.01  0.00  0.02  0.00  0.00  0.07  0.01  0.00
  FID5307                 1.00   0.72  0.00  0.00  0.27  0.00  0.00  0.01  0.24  0.00
  FID5308                 1.00   0.72  0.00  0.00  0.00  0.00  0.00  0.28  0.00  0.00
  FID5312                 1.00   0.72  0.00  0.00  0.00  0.00  0.00  0.28  0.00  0.00
  FID5865                 1.00   0.71  0.00  0.00  0.00  0.00  0.00  0.29  0.00  0.00
  C9                      1.00   0.00  0.00  0.00  1.00  0.00  0.00  0.00  0.00  0.00
  C12                     1.00   0.00  0.00  0.00  1.00  0.00  0.00  0.00  0.00  0.00
  C13                     1.00   0.00  0.00  0.00  1.00  0.00  0.00  0.00  0.00  0.00
  C14                     1.00   0.00  0.00  0.00  1.00  0.00  0.00  0.00  0.00  0.00
  C52                     1.00   0.00  0.71  0.00  0.28  0.00  0.00  0.00  0.28  0.00
  C130                    1.00   0.72  0.00  0.00  0.26  0.00  0.00  0.02  0.15  0.00
  C131                    1.00   0.73  0.00  0.00  0.01  0.00  0.00  0.26  0.01  0.00
  C139                    1.00   0.71  0.29  0.00  0.00  0.00  0.00  0.00  0.00  0.00
  C191                    1.00   0.00  0.00  0.00  1.00  0.00  0.00  0.00  0.00  0.00
  C193                    1.00   0.00  0.00  0.00  1.00  0.00  0.00  0.00  0.00  0.00
  C194                    1.00   0.00  0.00  0.00  1.00  0.00  0.00  0.00  0.00  0.00
  C195                    1.00   0.00  0.00  0.00  1.00  0.00  0.00  0.00  0.00  0.00
  C196                    1.00   0.00  0.00  0.00  1.00  0.00  0.00  0.00  0.00  0.00
  C197                    1.00   0.00  0.00  0.00  1.00  0.00  0.00  0.00  0.00  0.00
  C198                    1.00   0.00  0.00  0.00  1.00  0.00  0.00  0.00  0.00  0.00
  C199                    1.00   0.00  0.00  0.00  1.00  0.00  0.00  0.00  0.00  0.00
  C200                    1.00   0.00  0.00  0.00  1.00  0.00  0.00  0.00  0.00  0.00
  C201                    1.00   0.00  0.00  0.00  1.00  0.00  0.00  0.00  0.00  0.00
  C202                    1.00   0.00  0.00  0.00  1.00  0.00  0.00  0.00  0.00  0.00
  C203                    1.00   0.00  0.00  0.00  1.00  0.00  0.00  0.00  0.00  0.00
  C204                    1.00   0.00  0.00  0.00  1.00  0.00  0.00  0.00  0.00  0.00
  C205                    1.00   0.00  0.00  0.00  1.00  0.00  0.00  0.00  0.00  0.00
  C206                    1.00   0.00  0.00  0.00  1.00  0.00  0.00  0.00  0.00  0.00
  C207                    1.00   0.00  0.00  0.00  1.00  0.00  0.00  0.00  0.00  0.00
  C208                    1.00   0.00  0.00  0.00  1.00  0.00  0.00  0.00  0.00  0.00
  C209                    1.00   0.00  0.00  0.00  1.00  0.00  0.00  0.00  0.00  0.00
  C210                    1.00   0.00  0.00  0.00  1.00  0.00  0.00  0.00  0.00  0.00
  C211                    1.00   0.00  0.00  0.00  1.00  0.00  0.00  0.00  0.00  0.00
  C212                    1.00   0.00  0.00  0.00  1.00  0.00  0.00  0.00  0.00  0.00
  C213                    1.00   0.00  0.00  0.00  1.00  0.00  0.00  0.00  0.00  0.00
  C214                    1.00   0.00  0.00  0.00  1.00  0.00  0.00  0.00  0.00  0.00
  C215                    1.00   0.00  0.00  0.00  1.00  0.00  0.00  0.00  0.98  0.00
  C216                    1.00   0.00  0.00  0.00  1.00  0.00  0.00  0.00  0.00  0.00
  C217                    1.00   0.00  0.00  0.00  1.00  0.00  0.00  0.00  0.00  0.00
  C218                    1.00   0.00  0.00  0.00  1.00  0.00  0.00  0.00  0.00  0.00
  C219                    1.00   0.00  0.00  0.00  1.00  0.00  0.00  0.00  0.00  0.00
  C220                    1.00   0.00  0.00  0.00  1.00  0.00  0.00  0.00  0.00  0.00
  C221                    1.00   0.00  0.00  0.00  1.00  0.00  0.00  0.00  0.00  0.00
  C222                    1.00   0.00  0.00  0.00  1.00  0.00  0.00  0.00  0.00  0.00
  C223                    1.00   0.00  0.00  0.00  0.99  0.00  0.00  0.00  0.96  0.00
  C224                    1.00   0.01  0.00  0.00  0.99  0.00  0.00  0.00  0.00  0.00
  C225                    1.00   0.01  0.00  0.00  0.99  0.00  0.00  0.00  0.00  0.00
  C226                    1.00   0.01  0.00  0.00  0.99  0.00  0.00  0.00  0.00  0.00
  C227                    1.00   0.01  0.00  0.00  0.99  0.00  0.00  0.00  0.00  0.00
  C228                    1.00   0.01  0.00  0.00  0.99  0.00  0.00  0.00  0.00  0.00
  C229                    1.00   0.01  0.00  0.00  0.99  0.00  0.00  0.00  0.00  0.00
  C230                    1.00   0.01  0.00  0.00  0.99  0.00  0.00  0.00  0.00  0.00
  C231                    1.00   0.01  0.00  0.00  0.99  0.00  0.00  0.00  0.96  0.00
  C232                    1.00   0.01  0.00  0.00  0.99  0.00  0.00  0.00  0.00  0.00
  C233                    1.00   0.01  0.00  0.00  0.99  0.00  0.00  0.00  0.00  0.00
  C234                    1.00   0.01  0.00  0.00  0.99  0.00  0.00  0.00  0.00  0.00
  C235                    1.00   0.01  0.00  0.00  0.99  0.00  0.00  0.00  0.00  0.00
  C236                    1.00   0.01  0.00  0.00  0.99  0.00  0.00  0.00  0.00  0.00
  C237                    1.00   0.01  0.00  0.00  0.99  0.00  0.00  0.00  0.00  0.00
  C238                    1.00   0.01  0.00  0.00  0.99  0.00  0.00  0.00  0.00  0.00
  C239                    1.00   0.01  0.00  0.00  0.99  0.00  0.00  0.00  0.00  0.00
  C240                    1.00   0.01  0.00  0.00  0.99  0.00  0.00  0.00  0.00  0.00
  C241                    1.00   0.01  0.00  0.00  0.99  0.00  0.00  0.00  0.00  0.00
  C242                    1.00   0.01  0.00  0.00  0.99  0.00  0.00  0.00  0.00  0.00
  C243                    1.00   0.01  0.00  0.00  0.99  0.00  0.00  0.00  0.00  0.00
  C244                    1.00   0.01  0.00  0.00  0.99  0.00  0.00  0.00  0.00  0.00
  C245                    1.00   0.01  0.00  0.00  0.99  0.00  0.00  0.00  0.00  0.00
  C246                    1.00   0.01  0.00  0.00  0.99  0.00  0.00  0.00  0.94  0.00
  C247                    1.00   0.01  0.00  0.00  0.99  0.00  0.00  0.00  0.00  0.00
  C248                    1.00   0.01  0.00  0.00  0.99  0.00  0.00  0.00  0.00  0.00
  C249                    1.00   0.01  0.00  0.00  0.99  0.00  0.00  0.00  0.00  0.00
  C250                    1.00   0.01  0.00  0.00  0.99  0.00  0.00  0.00  0.00  0.00
  C251                    1.00   0.02  0.00  0.00  0.98  0.00  0.00  0.00  0.00  0.00
  C252                    1.00   0.02  0.00  0.00  0.98  0.00  0.00  0.00  0.00  0.00
  C253                    1.00   0.02  0.00  0.00  0.98  0.00  0.00  0.00  0.22  0.00
  C254                    1.00   0.02  0.00  0.00  0.98  0.00  0.00  0.00  0.92  0.00
  C255                    1.00   0.02  0.00  0.00  0.98  0.00  0.00  0.00  0.00  0.00
  C256                    1.00   0.02  0.00  0.00  0.98  0.00  0.00  0.00  0.00  0.00
  C257                    1.00   0.02  0.00  0.00  0.98  0.00  0.00  0.00  0.00  0.00
  C258                    1.00   0.02  0.00  0.00  0.98  0.00  0.00  0.00  0.00  0.00
  C259                    1.00   0.02  0.00  0.00  0.98  0.00  0.00  0.00  0.00  0.00
  C260                    1.00   0.02  0.00  0.00  0.98  0.00  0.00  0.00  0.00  0.00
  C261                    1.00   0.02  0.00  0.00  0.98  0.00  0.00  0.00  0.00  0.00
  C262                    1.00   0.02  0.00  0.00  0.98  0.00  0.00  0.00  0.00  0.00
  C263                    1.00   0.02  0.00  0.00  0.98  0.00  0.00  0.00  0.00  0.00
  C264                    1.00   0.02  0.00  0.00  0.98  0.00  0.00  0.00  0.00  0.00
  C265                    1.00   0.02  0.00  0.00  0.98  0.00  0.00  0.00  0.00  0.00
  C266                    1.00   0.02  0.00  0.00  0.98  0.00  0.00  0.00  0.00  0.00
  C267                    1.00   0.02  0.00  0.00  0.98  0.00  0.00  0.00  0.00  0.00
  C268                    1.00   0.02  0.00  0.00  0.98  0.00  0.00  0.00  0.00  0.00
  C269                    1.00   0.02  0.00  0.00  0.98  0.00  0.00  0.00  0.00  0.00
  C270                    1.00   0.02  0.00  0.00  0.98  0.00  0.00  0.00  0.00  0.00
  C271                    1.00   0.02  0.00  0.00  0.98  0.00  0.00  0.00  0.00  0.00
  C272                    1.00   0.02  0.00  0.00  0.98  0.00  0.00  0.00  0.00  0.00
  C273                    1.00   0.02  0.00  0.00  0.98  0.00  0.00  0.00  0.00  0.00
  C274                    1.00   0.02  0.00  0.00  0.98  0.00  0.00  0.00  0.00  0.00
  C275                    1.00   0.02  0.00  0.00  0.98  0.00  0.00  0.00  0.00  0.00
  C276                    1.00   0.02  0.00  0.00  0.98  0.00  0.00  0.00  0.00  0.00
  C277                    1.00   0.02  0.00  0.00  0.98  0.00  0.00  0.00  0.00  0.00
  C278                    1.00   0.02  0.00  0.00  0.98  0.00  0.00  0.00  0.00  0.00
  C279                    1.00   0.02  0.00  0.00  0.98  0.00  0.00  0.00  0.00  0.00
  C280                    1.00   0.02  0.00  0.00  0.98  0.00  0.00  0.00  0.00  0.00
  C281                    1.00   0.02  0.00  0.00  0.98  0.00  0.00  0.00  0.00  0.00
  C282                    1.00   0.02  0.00  0.00  0.98  0.00  0.00  0.00  0.00  0.00
  C283                    1.00   0.02  0.00  0.00  0.98  0.00  0.00  0.00  0.00  0.00
  C284                    1.00   0.03  0.00  0.00  0.97  0.00  0.00  0.00  0.00  0.00
  C285                    1.00   0.03  0.00  0.00  0.97  0.00  0.00  0.00  0.00  0.00
  C286                    1.00   0.03  0.00  0.00  0.97  0.00  0.00  0.00  0.18  0.00
  C287                    1.00   0.03  0.00  0.00  0.97  0.00  0.00  0.00  0.19  0.00
  C288                    1.00   0.03  0.00  0.00  0.97  0.00  0.00  0.00  0.13  0.00
  C289                    1.00   0.03  0.00  0.00  0.97  0.00  0.00  0.00  0.11  0.00
  C290                    1.00   0.03  0.00  0.00  0.97  0.00  0.00  0.00  0.12  0.00
  C291                    1.00   0.03  0.00  0.00  0.97  0.00  0.00  0.00  0.00  0.00
  C292                    1.00   0.03  0.00  0.00  0.97  0.00  0.00  0.00  0.15  0.00
  C293                    1.00   0.03  0.00  0.00  0.97  0.00  0.00  0.00  0.10  0.00
  C294                    1.00   0.03  0.00  0.00  0.97  0.00  0.00  0.00  0.14  0.00
  C295                    1.00   0.03  0.00  0.00  0.97  0.00  0.00  0.00  0.00  0.00
  C296                    1.00   0.03  0.00  0.00  0.97  0.00  0.00  0.00  0.00  0.00
  C297                    1.00   0.03  0.00  0.00  0.97  0.00  0.00  0.00  0.64  0.00
  C298                    1.00   0.03  0.00  0.00  0.97  0.00  0.00  0.00  0.90  0.00
  C299                    1.00   0.03  0.00  0.00  0.97  0.00  0.00  0.00  0.00  0.00
  C300                    1.00   0.03  0.00  0.00  0.97  0.00  0.00  0.00  0.00  0.00
  C301                    1.00   0.03  0.00  0.00  0.97  0.00  0.00  0.00  0.00  0.00
  C302                    1.00   0.00  0.00  0.00  1.00  0.00  0.00  0.00  0.00  0.00
  C303                    1.00   0.00  0.00  0.00  1.00  0.00  0.00  0.00  0.00  0.00
  C353                    1.00   0.72  0.00  0.00  0.00  0.00  0.00  0.28  0.00  0.00
  
  
  *************************
  Conduit Surcharge Summary
  *************************
  
  ----------------------------------------------------------------------------
                                                           Hours        Hours 
                         --------- Hours Full --------   Above Full   Capacity
  Conduit                Both Ends  Upstream  Dnstream   Normal Flow   Limited
  ----------------------------------------------------------------------------
  C199                        0.01      0.01      0.01     56.47         0.01
  C200                        0.01      0.01      0.01     56.37         0.01
  
  
  ***************************
  Link Pollutant Load Summary
  ***************************
  
  --------------------------------------------------------------
                                 TSS            TP           TDP
  Link                            kg            kg            kg
  --------------------------------------------------------------
  FID1123                     20.616         0.015         0.081
  FID1139                    374.609         0.049         0.224
  FID1148                    313.718         0.141         0.334
  FID1149                    307.693         0.141         0.336
  FID3364                    141.859         0.173         0.180
  FID3671                     77.998         0.057         0.067
  FID3672                    406.135         0.255         0.857
  FID3762                   1120.191         0.573         1.108
  FID3765                   1737.749         1.090         2.464
  FID4112                    769.444         0.515         1.612
  FID4186                     21.693         0.059         0.009
  FID4187                     11.051         0.042         0.008
  FID4201                    495.671         0.239         0.784
  FID4202                    484.946         0.232         0.774
  FID4203                      0.000         0.000         0.000
  FID4299                      1.834         0.007         0.001
  FID4372                   3315.622         2.109         7.202
  FID4498                    642.597         0.589         0.830
  FID4806                   3674.755         8.182        19.365
  FID4807                      1.101         0.000         0.000
  FID4882                      0.000         0.000         0.000
  FID4884                     35.249         0.013         0.105
  FID4914                     38.775         0.064         0.007
  FID4915                     16.209         0.000         0.004
  FID4916                      8.796         0.000         0.003
  FID4917                      5.208         0.000         0.002
  FID5307                     52.951         0.010         0.033
  FID5308                     45.960         0.010         0.006
  FID5312                     50.315         0.009         0.033
  FID5865                   2924.084         7.472         7.865
  C9                        1170.308         4.690         1.990
  C12                       1170.343         4.677         1.974
  C13                       1455.617         4.847         2.543
  C14                        961.307         3.190         1.681
  C52                        302.630         0.275         0.047
  C130                        34.230         0.006         0.036
  C131                        33.006         0.006         0.036
  C139                         0.000         0.000         0.000
  C191                      1446.282         3.496         2.601
  C193                      1451.029         3.485         2.595
  C194                      1447.569         3.479         2.588
  C195                      1447.157         3.477         2.586
  C196                      1368.198         3.442         2.537
  C197                      3185.965         4.565         5.048
  C198                      4306.370         5.136         6.154
  C199                      4311.263         5.135         6.156
  C200                      4309.184         5.132         6.152
  C201                      4321.990         5.130         6.152
  C202                      4421.630         5.183         6.227
  C203                      4419.285         5.180         6.221
  C204                      4418.101         5.179         6.222
  C205                      5923.329         6.374        10.152
  C206                      6692.510         6.886        11.757
  C207                      6696.997         6.892        11.790
  C208                      6855.640         6.963        11.870
  C209                      6855.426         6.957        11.856
  C210                      6854.581         6.956        11.853
  C211                      6854.445         6.954        11.850
  C212                      9026.233         8.341        15.526
  C213                      9068.523         8.343        15.561
  C214                      9068.971         8.344        15.566
  C215                      9434.749         8.588        15.853
  C216                      9417.244         8.564        15.811
  C217                      9902.517         8.794        16.584
  C218                     1.020e+04         9.068        16.627
  C219                     1.021e+04         9.067        16.628
  C220                     1.021e+04         9.064        16.625
  C221                     1.026e+04         9.165        16.627
  C222                     1.029e+04         9.255        16.651
  C223                     1.035e+04         9.306        16.690
  C224                     1.035e+04         9.304        16.688
  C225                     1.039e+04         9.367        16.727
  C226                     1.039e+04         9.366        16.732
  C227                     1.042e+04         9.455        16.748
  C228                     1.046e+04         9.571        16.808
  C229                     1.057e+04         9.901        16.839
  C230                     1.057e+04         9.907        16.841
  C231                     1.057e+04         9.903        16.822
  C232                     1.057e+04         9.902        16.833
  C233                     1.063e+04         9.948        16.791
  C234                     1.068e+04         9.968        16.851
  C235                     1.078e+04         9.983        16.880
  C236                     1.410e+04        12.091        24.078
  C237                     1.412e+04        12.092        24.109
  C238                     1.452e+04        12.337        24.339
  C239                     1.451e+04        12.335        24.328
  C240                     1.450e+04        12.334        24.318
  C241                     1.454e+04        12.344        24.323
  C242                     1.460e+04        12.352        24.362
  C243                     1.466e+04        12.384        24.408
  C244                     1.470e+04        12.501        24.452
  C245                     1.470e+04        12.498        24.445
  C246                     1.842e+04        20.849        44.249
  C247                     1.844e+04        20.805        43.957
  C248                     1.845e+04        20.840        44.045
  C249                     1.844e+04        20.793        43.940
  C250                     1.845e+04        20.797        43.928
  C251                     1.845e+04        20.798        43.931
  C252                     1.859e+04        20.968        44.103
  C253                     1.860e+04        20.989        44.153
  C254                     1.861e+04        21.002        44.188
  C255                     1.860e+04        20.998        44.182
  C256                     1.924e+04        21.572        44.984
  C257                     1.925e+04        21.580        44.949
  C258                     1.925e+04        21.581        44.951
  C259                     1.926e+04        21.601        44.992
  C260                     1.926e+04        21.579        44.950
  C261                     1.929e+04        21.596        45.062
  C262                     1.930e+04        21.618        45.103
  C263                     1.929e+04        21.598        45.072
  C264                     1.930e+04        21.592        45.062
  C265                     2.222e+04        29.033        52.918
  C266                     2.222e+04        29.060        52.926
  C267                     2.222e+04        29.050        52.922
  C268                     2.222e+04        29.081        52.929
  C269                     2.223e+04        29.036        52.994
  C270                     2.224e+04        29.072        53.001
  C271                     2.223e+04        29.040        52.993
  C272                     2.223e+04        29.034        52.991
  C273                     2.255e+04        29.213        53.334
  C274                     2.255e+04        29.206        53.331
  C275                     2.255e+04        29.199        53.328
  C276                     2.255e+04        29.196        53.326
  C277                     2.254e+04        29.189        53.324
  C278                     2.254e+04        29.188        53.323
  C279                     2.254e+04        29.195        53.323
  C280                     2.254e+04        29.186        53.320
  C281                     2.292e+04        29.231        53.543
  C282                     2.292e+04        29.238        53.543
  C283                     2.295e+04        29.244        53.578
  C284                     2.295e+04        29.247        53.577
  C285                     2.295e+04        29.251        53.576
  C286                     2.295e+04        29.256        53.576
  C287                     2.296e+04        29.256        53.574
  C288                     2.295e+04        29.254        53.573
  C289                     2.295e+04        29.253        53.572
  C290                     2.295e+04        29.254        53.571
  C291                     2.295e+04        29.246        53.570
  C292                     2.297e+04        29.272        53.662
  C293                     2.297e+04        29.270        53.661
  C294                     2.297e+04        29.273        53.660
  C295                     2.297e+04        29.265        53.659
  C296                     2.297e+04        29.268        53.658
  C297                     2.297e+04        29.273        53.658
  C298                     2.297e+04        29.275        53.657
  C299                     2.297e+04        29.270        53.656
  C300                     2.297e+04        29.274        53.654
  C301                     2.297e+04        29.270        53.654
  C302                      1169.900         4.685         1.986
  C303                      1448.694         3.492         2.599
  C353                        13.415         0.014         0.092
  

  Analysis begun on:  Tue Oct 10 09:37:43 2017
  Analysis ended on:  Tue Oct 10 09:39:22 2017
  Total elapsed time: 00:01:39