
  EPA STORM WATER MANAGEMENT MODEL - VERSION 5.1 (Build 5.1.010)
  --------------------------------------------------------------

  WARNING 04: minimum elevation drop used for Conduit C199
  WARNING 04: minimum elevation drop used for Conduit C200
  WARNING 02: maximum depth increased for Node FID1955
  WARNING 02: maximum depth increased for Node FID1960
  WARNING 02: maximum depth increased for Node FID1965
  WARNING 02: maximum depth increased for Node FID1968
  WARNING 02: maximum depth increased for Node FID2244
  WARNING 02: maximum depth increased for Node FID2442
  WARNING 02: maximum depth increased for Node FID2446
  WARNING 02: maximum depth increased for Node FID5504
  WARNING 02: maximum depth increased for Node FID5527
  WARNING 02: maximum depth increased for Node AFID6926
  WARNING 02: maximum depth increased for Node AFID7376
  
  *********************************************************
  NOTE: The summary statistics displayed in this report are
  based on results found at every computational time step,  
  not just on results from each reporting time step.
  *********************************************************
  
  ****************
  Analysis Options
  ****************
  Flow Units ............... CMS
  Process Models:
    Rainfall/Runoff ........ YES
    RDII ................... NO
    Snowmelt ............... NO
    Groundwater ............ NO
    Flow Routing ........... YES
    Ponding Allowed ........ YES
    Water Quality .......... YES
  Infiltration Method ...... GREEN_AMPT
  Flow Routing Method ...... DYNWAVE
  Starting Date ............ MAY-06-2016 15:00:00
  Ending Date .............. MAY-07-2016 00:00:00
  Antecedent Dry Days ...... 0.0
  Report Time Step ......... 00:01:00
  Wet Time Step ............ 00:01:00
  Dry Time Step ............ 01:00:00
  Routing Time Step ........ 5.00 sec
  Variable Time Step ....... YES
  Maximum Trials ........... 8
  Number of Threads ........ 3
  Head Tolerance ........... 0.001500 m
  
  
  **************************        Volume         Depth
  Runoff Quantity Continuity     hectare-m            mm
  **************************     ---------       -------
  Total Precipitation ......         2.583         6.709
  Evaporation Loss .........         0.000         0.000
  Infiltration Loss ........         1.258         3.266
  Surface Runoff ...........         1.042         2.705
  Final Storage ............         0.286         0.742
  Continuity Error (%) .....        -0.070
  
  
  **************************           TSS            TP           TDP
  Runoff Quality Continuity             kg            kg            kg
  **************************    ----------    ----------    ----------
  Initial Buildup ..........         0.000         0.000         0.000
  Surface Buildup ..........     10802.228         7.237        12.023
  Wet Deposition ...........         0.000         0.000         0.000
  Sweeping Removal .........         0.000         0.000         0.000
  Infiltration Loss ........         0.000         0.000         0.000
  BMP Removal ..............         0.577         0.000         0.001
  Surface Runoff ...........      5773.846         3.773         5.869
  Remaining Buildup ........      5027.805         3.464         6.153
  Continuity Error (%) .....         0.000         0.000         0.000
  
  
  **************************        Volume        Volume
  Flow Routing Continuity        hectare-m      10^6 ltr
  **************************     ---------     ---------
  Dry Weather Inflow .......         0.000         0.000
  Wet Weather Inflow .......         1.042        10.415
  Groundwater Inflow .......         0.000         0.000
  RDII Inflow ..............         0.000         0.000
  External Inflow ..........         1.384        13.843
  External Outflow .........         1.896        18.959
  Flooding Loss ............         0.000         0.000
  Evaporation Loss .........         0.000         0.000
  Exfiltration Loss ........         0.000         0.000
  Initial Stored Volume ....         0.000         0.000
  Final Stored Volume ......         0.535         5.354
  Continuity Error (%) .....        -0.228
  
  
  **************************           TSS            TP           TDP
  Quality Routing Continuity            kg            kg            kg
  **************************    ----------    ----------    ----------
  Dry Weather Inflow .......         0.000         0.000         0.000
  Wet Weather Inflow .......      5771.079         3.770         5.860
  Groundwater Inflow .......         0.000         0.000         0.000
  RDII Inflow ..............         0.000         0.000         0.000
  External Inflow ..........       137.985         1.039         1.284
  External Outflow .........      5729.263         4.448         6.690
  Flooding Loss ............         0.000         0.000         0.000
  Exfiltration Loss ........         0.000         0.000         0.000
  Mass Reacted .............         0.000         0.000         0.000
  Initial Stored Mass ......         0.000         0.000         0.000
  Final Stored Mass ........        39.488         0.351         0.495
  Continuity Error (%) .....         2.375         0.199        -0.591
  
  
  *************************
  Highest Continuity Errors
  *************************
  Node FID2824 (1.69%)
  Node J72 (1.33%)
  Node FID2449 (1.23%)
  Node J19 (1.20%)
  Node J81 (1.16%)
  
  
  ***************************
  Time-Step Critical Elements
  ***************************
  Link C241 (92.65%)
  Link C14 (6.52%)
  
  
  ********************************
  Highest Flow Instability Indexes
  ********************************
  All links are stable.
  
  
  *************************
  Routing Time Step Summary
  *************************
  Minimum Time Step           :     0.44 sec
  Average Time Step           :     0.93 sec
  Maximum Time Step           :     5.00 sec
  Percent in Steady State     :     0.00
  Average Iterations per Step :     2.00
  Percent Not Converging      :     0.02
  
  
  ***************************
  Subcatchment Runoff Summary
  ***************************
  
  --------------------------------------------------------------------------------------------------------
                            Total      Total      Total      Total      Total       Total     Peak  Runoff
                           Precip      Runon       Evap      Infil     Runoff      Runoff   Runoff   Coeff
  Subcatchment                 mm         mm         mm         mm         mm    10^6 ltr      CMS
  --------------------------------------------------------------------------------------------------------
  S0                         5.84       0.00       0.00       5.05       0.58        0.00     0.00   0.099
  S1                         5.84       0.00       0.00       2.59       2.36        0.23     0.08   0.404
  S2                         6.35       0.00       0.00       1.94       3.30        0.57     0.19   0.519
  S3                         5.84       0.00       0.00       3.82       1.48        0.05     0.04   0.254
  S4                         5.84       0.00       0.00       2.79       2.23        0.22     0.18   0.381
  S6                         6.35       0.00       0.00       1.03       3.98        0.07     0.03   0.626
  S7                         6.35       0.00       0.00       1.55       4.08        1.60     0.44   0.643
  S8                         6.35       0.00       0.00       1.03       3.99        0.00     0.00   0.628
  S9                         6.35       0.00       0.00       1.75       3.45        0.00     0.00   0.543
  S10                        6.35       0.00       0.00       1.87       3.36        0.01     0.00   0.530
  S11                        6.35       0.00       0.00       4.99       1.02        0.00     0.00   0.161
  S12                        6.35       0.00       0.00       2.10       3.19        0.00     0.00   0.503
  S13                        6.35       0.00       0.00       2.35       2.99        0.23     0.08   0.471
  S14                        6.35       0.00       0.00       4.44       1.43        0.01     0.00   0.225
  S16                        6.35       0.00       0.00       2.16       3.21        0.18     0.05   0.505
  S17                        6.35       0.00       0.00       2.04       3.22        0.62     0.21   0.507
  S18                        6.35       0.00       0.00       1.39       3.73        0.00     0.00   0.587
  S19                        6.35       0.00       0.00       3.46       2.16        0.05     0.02   0.341
  S20                        6.35       0.00       0.00       2.20       3.11        0.02     0.01   0.490
  S21                        6.35       0.00       0.00       4.56       1.72        0.92     0.21   0.270
  S22                        6.35       0.00       0.00       1.69       3.50        0.00     0.00   0.551
  S23                        6.35       0.00       0.00       3.82       1.90        0.03     0.01   0.299
  S24                        6.35       0.00       0.00       3.61       2.05        0.04     0.01   0.323
  S25                        6.35       0.00       0.00       2.42       2.94        0.04     0.01   0.463
  S27                        6.35       0.00       0.00       2.77       2.69        0.01     0.01   0.423
  S28                        5.84       0.00       0.00       5.83       0.01        0.00     0.00   0.001
  S29                        5.84       0.00       0.00       5.80       0.03        0.00     0.00   0.006
  S30                        6.35       0.00       0.00       6.33       0.02        0.00     0.00   0.003
  S31                        6.35       0.00       0.00       6.34       0.01        0.00     0.00   0.001
  S32                        6.35       0.00       0.00       4.67       1.26        0.01     0.00   0.199
  S33                        6.35       0.00       0.00       1.51       3.63        0.04     0.02   0.571
  S34                        6.35       0.00       0.00       3.10       2.20        0.78     0.26   0.346
  S35                        6.35       0.00       0.00       3.59       2.07        0.01     0.00   0.326
  S36                        6.35       0.00       0.00       5.05       0.98        0.01     0.01   0.155
  S37                        6.35       0.00       0.00       1.83       3.39        0.02     0.01   0.533
  S39                        6.35       0.00       0.00       3.74       1.95        0.29     0.10   0.308
  S40                        6.35       0.00       0.00       4.41       1.45        0.03     0.01   0.229
  S41                        6.35       0.00       0.00       2.18       3.12        0.42     0.15   0.492
  S42                        6.35       0.00       0.00       2.58       2.82        0.29     0.10   0.445
  S43                        6.35       0.00       0.00       4.73       1.21        0.02     0.01   0.191
  S44                        6.35       0.00       0.00       2.65       2.77        0.63     0.21   0.436
  S45                        8.13       0.00       0.00       4.53       2.96        0.00     0.00   0.364
  S47                        8.13       0.00       0.00       3.44       3.81        0.16     0.14   0.469
  S48                        8.13       0.00       0.00       4.10       3.31        0.01     0.01   0.407
  S49                        8.13       0.00       0.00       3.60       3.65        0.68     0.50   0.449
  S51                        8.13       0.00       0.00       6.97       0.95        0.01     0.01   0.117
  S52                        8.13       0.00       0.00       3.92       3.42        0.23     0.20   0.421
  S53                        8.13       0.00       0.00       3.77       3.52        0.49     0.38   0.433
  S54                        8.13       0.00       0.00       4.83       2.65        0.25     0.07   0.326
  S55                        8.13       0.00       0.00       3.93       3.37        0.55     0.16   0.414
  S56                        8.13       0.00       0.00       5.87       1.83        0.00     0.00   0.225
  S57                        8.13       0.00       0.00       3.40       3.80        0.04     0.01   0.468
  S58                        8.13       0.00       0.00       4.27       3.10        0.13     0.04   0.381
  S59                        8.13       0.00       0.00       6.99       0.92        0.02     0.01   0.113
  S60                        8.13       0.00       0.00       5.76       1.90        0.05     0.01   0.234
  S61                        8.13       0.00       0.00       7.14       0.79        0.01     0.00   0.097
  S62                        8.13       0.00       0.00       6.65       1.20        0.03     0.03   0.148
  S63                        6.35       0.00       0.00       5.33       0.77        0.01     0.01   0.121
  S64                        6.35       0.00       0.00       2.84       2.64        0.04     0.02   0.415
  S65                        6.35       0.00       0.00       4.21       1.60        0.27     0.09   0.252
  
  
  ****************************
  Subcatchment Washoff Summary
  ****************************
  
  --------------------------------------------------------------
                                 TSS            TP           TDP
  Subcatchment                    kg            kg            kg
  --------------------------------------------------------------
  S0                           0.312         0.000         0.001
  S1                          39.662         0.011         0.134
  S2                         172.508         0.076         0.256
  S3                          30.175         0.010         0.039
  S4                          90.218         0.032         0.139
  S6                           4.490         0.001         0.020
  S7                         242.309         0.890         0.377
  S8                           0.788         0.000         0.000
  S9                           0.902         0.000         0.001
  S10                          8.975         0.003         0.006
  S11                          0.884         0.000         0.000
  S12                          0.518         0.000         0.000
  S13                         31.397         0.009         0.086
  S14                         12.829         0.007         0.014
  S16                         60.181         0.062         0.054
  S17                        197.247         0.094         0.305
  S18                          0.914         0.000         0.001
  S19                         31.960         0.022         0.050
  S20                         15.050         0.007         0.012
  S21                       1622.538         1.038         0.481
  S22                          5.782         0.002         0.004
  S23                         15.345         0.017         0.041
  S24                         25.041         0.010         0.029
  S25                         10.738         0.012         0.030
  S27                         15.451         0.008         0.013
  S28                          0.000         0.000         0.000
  S29                          0.000         0.000         0.000
  S30                          0.000         0.000         0.000
  S31                          0.000         0.000         0.000
  S32                          2.699         0.003         0.009
  S33                         25.704         0.011         0.023
  S34                        940.909         0.269         0.593
  S35                          8.235         0.004         0.008
  S36                          7.477         0.005         0.025
  S37                         11.500         0.007         0.013
  S39                        170.112         0.107         0.288
  S40                         21.958         0.018         0.054
  S41                        181.747         0.075         0.212
  S42                        133.545         0.063         0.180
  S43                         13.480         0.011         0.045
  S44                        282.413         0.146         0.410
  S45                          1.308         0.001         0.001
  S47                         71.173         0.036         0.076
  S48                          8.355         0.004         0.006
  S49                        235.898         0.131         0.335
  S51                          7.434         0.009         0.023
  S52                         91.389         0.045         0.113
  S53                        164.516         0.070         0.204
  S54                        138.631         0.092         0.213
  S55                        198.081         0.121         0.313
  S56                          0.045         0.000         0.000
  S57                          4.605         0.006         0.018
  S58                         63.000         0.028         0.068
  S59                         40.349         0.013         0.036
  S60                         23.988         0.026         0.063
  S61                         12.992         0.003         0.017
  S62                         18.441         0.024         0.058
  S63                          9.053         0.002         0.024
  S64                         10.613         0.014         0.034
  S65                        237.980         0.114         0.315
  --------------------------------------------------------------
  System                    5773.846         3.773         5.869
  
  
  ******************
  Node Depth Summary
  ******************
  
  ---------------------------------------------------------------------------------
                                 Average  Maximum  Maximum  Time of Max    Reported
                                   Depth    Depth      HGL   Occurrence   Max Depth
  Node                 Type       Meters   Meters   Meters  days hr:min      Meters
  ---------------------------------------------------------------------------------
  FID1936              JUNCTION     0.15     0.40  1376.70     0  04:05        0.12
  FID1955              JUNCTION     0.16     0.33  1376.25     0  04:15        0.10
  FID1960              JUNCTION     0.15     0.28  1376.14     0  04:15        0.08
  FID1965              JUNCTION     0.15     0.26  1376.56     0  04:15        0.08
  FID1968              JUNCTION     0.13     0.21  1376.61     0  03:45        0.06
  FID2239              JUNCTION     0.15     0.29  1374.80     0  03:30        0.09
  FID2241              JUNCTION     0.13     0.20  1373.33     0  04:05        0.06
  FID2242              JUNCTION     0.13     0.22  1374.26     0  04:05        0.07
  FID2244              JUNCTION     0.13     0.19  1374.55     0  03:30        0.06
  FID2440              JUNCTION     0.38     0.62  1374.87     0  04:10        0.19
  FID2442              JUNCTION     0.00     0.00  1375.27     0  00:00        0.00
  FID2446              JUNCTION     0.16     0.57  1376.37     0  04:05        0.17
  FID2447              JUNCTION     0.15     0.47  1376.17     0  04:05        0.14
  FID2455              JUNCTION     0.29     0.57  1374.56     0  04:20        0.17
  FID2711              JUNCTION     0.13     0.25  1370.43     0  04:05        0.07
  FID2719              JUNCTION     0.17     0.91  1371.01     0  03:49        0.24
  FID2720              JUNCTION     0.16     0.39  1370.59     0  04:05        0.12
  FID2824              JUNCTION     0.12     0.18  1371.46     0  03:55        0.06
  FID2827              JUNCTION     0.13     0.23  1371.53     0  03:55        0.07
  FID2828              JUNCTION     0.13     0.23  1371.55     0  03:55        0.07
  FID2832              JUNCTION     0.16     0.31  1370.91     0  04:10        0.09
  FID2833              JUNCTION     0.21     0.48  1371.10     0  04:10        0.15
  FID2839              JUNCTION     0.18     0.35  1371.55     0  04:10        0.11
  FID2873              JUNCTION     0.16     0.29  1370.99     0  03:55        0.09
  FID2964              JUNCTION     0.18     0.35  1371.13     0  04:34        0.11
  FID2965              JUNCTION     0.42     0.87  1371.13     0  04:34        0.26
  FID4584              JUNCTION     0.13     0.30  1371.64     0  04:10        0.09
  FID5068              JUNCTION     0.13     0.20  1375.58     0  03:30        0.06
  FID5072              JUNCTION     0.47     0.80  1374.09     0  04:20        0.24
  FID5140              JUNCTION     0.16     0.30  1373.52     0  04:05        0.09
  FID5435              JUNCTION     0.16     0.26  1373.01     0  04:05        0.08
  FID5437              JUNCTION     0.12     0.18  1373.13     0  03:30        0.05
  FID5503              JUNCTION     0.12     0.16  1371.49     0  03:51        0.05
  FID5504              JUNCTION     0.15     0.25  1371.61     0  04:10        0.08
  FID5527              JUNCTION     0.14     0.21  1372.71     0  04:10        0.07
  FID5568              JUNCTION     0.46     0.83  1373.22     0  04:23        0.25
  FID5784              JUNCTION     0.47     0.84  1372.84     0  04:24        0.26
  FID5785              JUNCTION     0.14     0.25  1374.68     0  04:05        0.07
  AFID6926             JUNCTION     0.15     0.25  1370.05     0  04:15        0.08
  AFID7360             JUNCTION     0.48     0.95  1371.08     0  04:34        0.29
  AFID7363             JUNCTION     0.46     0.93  1371.10     0  04:34        0.28
  AFID7376             JUNCTION     0.19     0.41  1371.64     0  04:10        0.12
  AFID7377             JUNCTION     0.39     0.74  1371.42     0  04:32        0.23
  AFID7705             JUNCTION     0.48     0.59  1375.56     0  04:15        0.18
  AFID7706             JUNCTION     0.54     0.65  1375.56     0  04:15        0.20
  AFID7792             JUNCTION     0.17     0.39  1375.19     0  04:05        0.12
  AFID8223             JUNCTION     0.47     0.84  1372.84     0  04:24        0.26
  J1                   JUNCTION     0.70     0.73  1375.72     0  04:15        0.22
  FID4901              JUNCTION     0.44     0.52  1375.59     0  04:15        0.16
  J9                   JUNCTION     0.59     0.62  1375.71     0  04:15        0.19
  J11                  JUNCTION     0.44     0.47  1375.68     0  04:16        0.14
  J12                  JUNCTION     0.43     0.50  1375.62     0  04:15        0.15
  J13                  JUNCTION     0.43     0.52  1375.60     0  04:15        0.16
  FID4902              JUNCTION     0.45     0.54  1375.59     0  04:15        0.17
  J14                  JUNCTION     0.36     0.53  1375.44     0  04:05        0.16
  J15                  JUNCTION     0.34     0.55  1375.21     0  04:06        0.17
  J16                  JUNCTION     0.35     0.56  1375.20     0  04:06        0.17
  FID2449              JUNCTION     0.39     0.63  1374.95     0  04:10        0.19
  J17                  JUNCTION     0.28     0.57  1374.54     0  04:20        0.17
  J19                  JUNCTION     0.41     0.75  1374.29     0  04:22        0.23
  FID5069              JUNCTION     0.50     0.83  1374.08     0  04:21        0.25
  FID5139              JUNCTION     0.47     0.84  1373.20     0  04:22        0.26
  J24                  JUNCTION     0.47     0.84  1373.21     0  04:22        0.26
  FID4984              JUNCTION     0.49     0.86  1372.82     0  04:25        0.26
  FID2669              JUNCTION     0.36     0.73  1369.17     0  04:37        0.22
  FID2712              JUNCTION     0.38     0.78  1369.97     0  04:35        0.24
  FID2718              JUNCTION     0.38     0.79  1370.04     0  04:35        0.24
  FID2838              JUNCTION     0.56     1.02  1370.96     0  04:32        0.31
  FID2825              JUNCTION     0.60     1.10  1371.00     0  04:33        0.33
  FID2823              JUNCTION     0.65     1.15  1371.03     0  04:34        0.35
  FID5505              JUNCTION     0.54     1.03  1371.05     0  04:34        0.31
  FID5436              JUNCTION     0.50     0.86  1372.18     0  04:30        0.26
  FID5438              JUNCTION     0.43     0.79  1372.22     0  04:30        0.24
  J49                  JUNCTION     0.47     0.56  1375.58     0  04:15        0.17
  J50                  JUNCTION     0.51     0.61  1375.57     0  04:15        0.19
  J51                  JUNCTION     0.56     0.67  1375.56     0  04:15        0.20
  J52                  JUNCTION     0.57     0.68  1375.56     0  04:15        0.21
  J53                  JUNCTION     0.36     0.52  1375.44     0  04:05        0.16
  J54                  JUNCTION     0.37     0.51  1375.46     0  04:05        0.15
  J55                  JUNCTION     0.41     0.52  1375.55     0  04:15        0.16
  J56                  JUNCTION     0.39     0.50  1375.52     0  04:09        0.15
  J57                  JUNCTION     0.37     0.48  1375.51     0  04:07        0.15
  J58                  JUNCTION     0.37     0.50  1375.47     0  04:06        0.15
  FID1935              JUNCTION     0.37     0.53  1375.42     0  04:05        0.16
  J59                  JUNCTION     0.37     0.53  1375.40     0  04:05        0.16
  J60                  JUNCTION     0.36     0.53  1375.35     0  04:06        0.16
  J61                  JUNCTION     0.34     0.52  1375.29     0  04:07        0.16
  J62                  JUNCTION     0.33     0.52  1375.27     0  04:07        0.16
  J63                  JUNCTION     0.35     0.55  1375.24     0  04:06        0.17
  J64                  JUNCTION     0.33     0.54  1375.16     0  04:07        0.17
  J65                  JUNCTION     0.30     0.52  1375.10     0  04:08        0.16
  J66                  JUNCTION     0.38     0.62  1374.83     0  04:10        0.19
  J67                  JUNCTION     0.38     0.61  1374.76     0  04:11        0.19
  J68                  JUNCTION     0.36     0.60  1374.66     0  04:12        0.18
  J69                  JUNCTION     0.49     0.79  1374.52     0  04:20        0.24
  J70                  JUNCTION     0.47     0.78  1374.43     0  04:21        0.24
  J71                  JUNCTION     0.46     0.77  1374.36     0  04:21        0.23
  J72                  JUNCTION     0.48     0.80  1374.15     0  04:22        0.24
  J73                  JUNCTION     0.50     0.83  1374.05     0  04:21        0.25
  J74                  JUNCTION     0.50     0.82  1373.81     0  04:24        0.25
  J75                  JUNCTION     0.50     0.82  1373.67     0  04:26        0.25
  J76                  JUNCTION     0.47     0.84  1373.18     0  04:22        0.26
  J77                  JUNCTION     0.47     0.85  1373.05     0  04:23        0.26
  J78                  JUNCTION     0.47     0.84  1372.91     0  04:24        0.26
  J79                  JUNCTION     0.47     0.84  1372.85     0  04:24        0.26
  J80                  JUNCTION     0.40     0.76  1372.25     0  04:30        0.23
  J81                  JUNCTION     0.48     0.83  1371.83     0  04:33        0.25
  J82                  JUNCTION     0.48     0.82  1371.75     0  04:33        0.25
  J83                  JUNCTION     0.40     0.77  1371.58     0  04:34        0.24
  J84                  JUNCTION     0.37     0.70  1371.34     0  04:33        0.21
  J85                  JUNCTION     0.37     0.74  1371.26     0  04:34        0.22
  J86                  JUNCTION     0.39     0.80  1371.17     0  04:34        0.24
  J87                  JUNCTION     0.45     0.92  1371.11     0  04:34        0.28
  J88                  JUNCTION     0.53     1.01  1371.06     0  04:34        0.31
  J89                  JUNCTION     0.57     1.06  1371.05     0  04:34        0.32
  J90                  JUNCTION     0.53     0.99  1370.95     0  04:32        0.30
  J91                  JUNCTION     0.53     0.99  1370.88     0  04:33        0.30
  J92                  JUNCTION     0.53     0.99  1370.83     0  04:33        0.30
  J93                  JUNCTION     0.52     0.99  1370.72     0  04:33        0.30
  J94                  JUNCTION     0.52     0.99  1370.65     0  04:32        0.30
  J95                  JUNCTION     0.52     0.99  1370.63     0  04:32        0.30
  J96                  JUNCTION     0.52     0.98  1370.54     0  04:33        0.30
  J97                  JUNCTION     0.51     0.97  1370.47     0  04:33        0.30
  J98                  JUNCTION     0.50     0.96  1370.41     0  04:34        0.29
  J99                  JUNCTION     0.49     0.94  1370.34     0  04:34        0.29
  J100                 JUNCTION     0.48     0.92  1370.28     0  04:35        0.28
  J101                 JUNCTION     0.46     0.89  1370.22     0  04:35        0.27
  J102                 JUNCTION     0.39     0.80  1370.06     0  04:35        0.24
  J103                 JUNCTION     0.38     0.79  1370.01     0  04:35        0.24
  J104                 JUNCTION     0.38     0.77  1369.93     0  04:35        0.23
  J105                 JUNCTION     0.37     0.75  1369.88     0  04:35        0.23
  J106                 JUNCTION     0.36     0.73  1369.80     0  04:36        0.22
  J107                 JUNCTION     0.36     0.72  1369.66     0  04:36        0.22
  J108                 JUNCTION     0.36     0.73  1369.52     0  04:37        0.22
  J109                 JUNCTION     0.36     0.73  1369.41     0  04:37        0.22
  J110                 JUNCTION     0.36     0.73  1369.31     0  04:37        0.22
  J111                 JUNCTION     0.36     0.73  1369.21     0  04:37        0.22
  J112                 JUNCTION     0.36     0.73  1369.05     0  04:38        0.22
  J113                 JUNCTION     0.36     0.73  1368.96     0  04:38        0.22
  J114                 JUNCTION     0.36     0.73  1368.84     0  04:38        0.22
  J115                 JUNCTION     0.36     0.73  1368.78     0  04:38        0.22
  J116                 JUNCTION     0.36     0.73  1368.71     0  04:39        0.22
  J117                 JUNCTION     0.36     0.73  1368.60     0  04:39        0.22
  J118                 JUNCTION     0.36     0.72  1368.49     0  04:39        0.22
  J119                 JUNCTION     0.36     0.71  1368.42     0  04:39        0.22
  J120                 JUNCTION     0.37     0.70  1368.30     0  04:39        0.21
  FID2451              JUNCTION     0.38     0.61  1374.90     0  04:10        0.19
  J121                 JUNCTION     0.38     0.75  1371.49     0  04:33        0.23
  J122                 JUNCTION     0.38     0.75  1371.46     0  04:33        0.23
  FID3706              JUNCTION     0.53     0.99  1370.73     0  04:33        0.30
  FID2831              JUNCTION     0.52     0.99  1370.62     0  04:32        0.30
  FID2689              OUTFALL      0.26     0.52  1368.02     0  04:39        0.16
  
  
  *******************
  Node Inflow Summary
  *******************
  
  -------------------------------------------------------------------------------------------------
                                  Maximum  Maximum                  Lateral       Total        Flow
                                  Lateral    Total  Time of Max      Inflow      Inflow     Balance
                                   Inflow   Inflow   Occurrence      Volume      Volume       Error
  Node                 Type           CMS      CMS  days hr:min    10^6 ltr    10^6 ltr     Percent
  -------------------------------------------------------------------------------------------------
  FID1936              JUNCTION     0.199    0.199     0  04:05       0.229       0.229       0.071
  FID1955              JUNCTION     0.164    0.164     0  04:15       0.549       0.549       0.031
  FID1960              JUNCTION     0.075    0.075     0  04:15        0.25        0.25       0.067
  FID1965              JUNCTION     0.038    0.038     0  04:15       0.126       0.126       0.138
  FID1968              JUNCTION     0.011    0.011     0  04:15       0.038       0.038       0.460
  FID2239              JUNCTION     0.015    0.015     0  03:30      0.0394      0.0394       1.314
  FID2241              JUNCTION     0.000    0.013     0  04:05           0       0.037       0.467
  FID2242              JUNCTION     0.013    0.013     0  04:05      0.0372      0.0372       0.487
  FID2244              JUNCTION     0.007    0.007     0  03:30      0.0144      0.0144       1.223
  FID2440              JUNCTION     0.000    1.288     0  04:08           0        15.3       0.227
  FID2442              JUNCTION     0.000    0.000     0  00:00           0           0       0.000 ltr
  FID2446              JUNCTION     0.143    0.143     0  04:05       0.162       0.162       1.154
  FID2447              JUNCTION     0.000    0.140     0  04:05           0       0.161      -0.328
  FID2455              JUNCTION     0.098    1.332     0  04:11       0.287        15.4       0.209
  FID2711              JUNCTION     0.000    0.043     0  04:05           0      0.0477       0.336
  FID2719              JUNCTION     0.182    0.182     0  04:05       0.222       0.222       0.204
  FID2720              JUNCTION     0.044    0.044     0  04:05      0.0479      0.0479       0.431
  FID2824              JUNCTION     0.000    0.004     0  03:55    0.000655      0.0098       1.716
  FID2827              JUNCTION     0.000    0.003     0  03:55    0.000742     0.00925       1.114
  FID2828              JUNCTION     0.003    0.003     0  04:10     0.00876     0.00876       2.983
  FID2832              JUNCTION     0.000    0.191     0  04:10           0       0.568       0.053
  FID2833              JUNCTION     0.191    0.191     0  04:10       0.569       0.569       0.043
  FID2839              JUNCTION     0.442    0.442     0  04:10         1.6         1.6       0.025
  FID2873              JUNCTION     0.025    0.025     0  04:10      0.0747      0.0747       0.905
  FID2964              JUNCTION     0.049    0.049     0  04:10       0.179       0.179       0.098
  FID2965              JUNCTION     0.000    1.862     0  04:33           0          17       0.267
  FID4584              JUNCTION     0.000    0.002     0  03:32           0    0.000869      19.003
  FID5068              JUNCTION     0.008    0.008     0  03:30      0.0177      0.0177       0.992
  FID5072              JUNCTION     0.100    1.461     0  04:20       0.289        15.6       0.197
  FID5140              JUNCTION     0.257    0.257     0  04:05       0.777       0.777       0.013
  FID5435              JUNCTION     0.210    0.210     0  04:05       0.919       0.919       0.020
  FID5437              JUNCTION     0.002    0.002     0  03:30     0.00483     0.00483       3.741
  FID5503              JUNCTION     0.000    0.000     0  03:27    0.000701    0.000701      32.886
  FID5504              JUNCTION     0.076    0.076     0  04:10       0.226       0.226       0.119
  FID5527              JUNCTION     0.016    0.016     0  04:10      0.0467      0.0467       0.374
  FID5568              JUNCTION     0.004    1.435     0  04:26     0.00691        15.3       0.694
  FID5784              JUNCTION     0.000    1.657     0  04:22           0        16.1       0.096
  FID5785              JUNCTION     0.000    0.014     0  04:05           0      0.0389       0.383
  AFID6926             JUNCTION     0.076    0.076     0  04:15       0.231       0.231       0.076
  AFID7360             JUNCTION     0.000    1.863     0  04:36    0.000423          17       0.195
  AFID7363             JUNCTION     0.000    1.863     0  04:35           0          17       0.096
  AFID7376             JUNCTION     0.205    0.205     0  04:10       0.618       0.619      -0.004
  AFID7377             JUNCTION     0.000    1.851     0  04:30           0          17       0.106
  AFID7705             JUNCTION     0.000    0.730     0  04:15           0        14.1       0.267
  AFID7706             JUNCTION     0.000    0.655     0  04:16           0        13.9       0.258
  AFID7792             JUNCTION     0.210    0.210     0  04:05       0.625       0.625       0.024
  AFID8223             JUNCTION     0.000    1.648     0  04:22           0        16.1       0.021
  J1                   JUNCTION     0.667    0.667     0  04:15          21          21       0.151
  FID4901              JUNCTION     0.000    0.487     0  04:19           0        13.8       0.234
  J9                   JUNCTION     0.000    0.667     0  04:15           0          21       0.303
  J11                  JUNCTION     0.000    0.666     0  04:15           0        20.9       0.523
  J12                  JUNCTION     0.007    0.672     0  04:20      0.0233        20.8       0.571
  J13                  JUNCTION    -0.220    0.680     0  04:20       -7.13        20.7      -0.191
  FID4902              JUNCTION     0.000    0.496     0  04:15           0        13.8       0.367
  J14                  JUNCTION     0.383    0.912     0  04:05       0.491        14.3       0.192
  J15                  JUNCTION     0.498    1.271     0  04:05       0.684        14.9       0.157
  J16                  JUNCTION     0.008    1.255     0  04:05     0.00955        14.9       0.158
  FID2449              JUNCTION     0.001    1.152     0  04:08     0.00138        14.8       1.246
  J17                  JUNCTION     0.146    1.415     0  04:11       0.425        15.8       0.100
  J19                  JUNCTION     0.019    1.399     0  04:21       0.037        15.6       1.214
  FID5069              JUNCTION     0.000    1.463     0  04:20           0        15.6       0.177
  FID5139              JUNCTION     0.000    1.611     0  04:21           0          16       0.051
  J24                  JUNCTION     0.018    1.447     0  04:25       0.042        15.2       0.079
  FID4984              JUNCTION     0.000    1.661     0  04:22           0        16.1       0.790
  FID2669              JUNCTION     0.000    2.225     0  04:37           0        19.1       0.061
  FID2712              JUNCTION     0.000    2.202     0  04:35           0          19       0.077
  FID2718              JUNCTION     0.000    2.190     0  04:35           0          19       0.054
  FID2838              JUNCTION     0.000    2.073     0  04:30           0        18.5       0.163
  FID2825              JUNCTION     0.000    1.891     0  04:37           0          17       0.296
  FID2823              JUNCTION     0.000    1.887     0  04:36           0          17       0.470
  FID5505              JUNCTION     0.000    1.883     0  04:36           0        17.1       0.124
  FID5436              JUNCTION     0.000    1.785     0  04:29           0        16.8       0.774
  FID5438              JUNCTION     0.000    1.650     0  04:31           0        15.9       0.144
  J49                  JUNCTION     0.000    0.499     0  04:19           0        13.7       0.587
  J50                  JUNCTION     0.000    0.506     0  04:19    0.000281        13.6       1.029
  J51                  JUNCTION     0.000    0.517     0  04:18           0        13.5       0.829
  J52                  JUNCTION     0.000    0.530     0  04:33           0        13.4       0.246
  J53                  JUNCTION     0.000    0.746     0  04:15           0        13.8       0.209
  J54                  JUNCTION     0.000    0.741     0  04:15           0        13.9       0.309
  J55                  JUNCTION     0.000    0.730     0  04:15           0        14.1       0.296
  J56                  JUNCTION     0.000    0.731     0  04:15           0          14       0.318
  J57                  JUNCTION     0.000    0.732     0  04:15           0          14       0.397
  J58                  JUNCTION     0.002    0.737     0  04:15     0.00684        13.9       0.424
  FID1935              JUNCTION     0.000    1.092     0  04:05           0        14.5       0.246
  J59                  JUNCTION     0.000    1.069     0  04:05           0        14.5       0.341
  J60                  JUNCTION     0.008    1.032     0  04:05     0.00961        14.4       0.534
  J61                  JUNCTION     0.000    0.961     0  04:06           0        14.4       0.359
  J62                  JUNCTION     0.000    0.950     0  04:07           0        14.3       0.161
  J63                  JUNCTION     0.000    0.954     0  04:07           0        14.3       0.164
  J64                  JUNCTION     0.000    1.237     0  04:05           0        14.9       0.163
  J65                  JUNCTION     0.027    1.237     0  04:05      0.0306        14.9       0.947
  J66                  JUNCTION     0.000    1.284     0  04:09           0        15.3       0.286
  J67                  JUNCTION     0.000    1.279     0  04:10           0        15.3       0.426
  J68                  JUNCTION     0.011    1.277     0  04:10      0.0234        15.2       0.462
  J69                  JUNCTION     0.000    1.413     0  04:11           0        15.8       0.448
  J70                  JUNCTION     0.006    1.408     0  04:20      0.0118        15.8       0.573
  J71                  JUNCTION     0.000    1.400     0  04:21           0        15.7       0.413
  J72                  JUNCTION     0.011    1.395     0  04:22      0.0318        15.5       1.352
  J73                  JUNCTION     0.000    1.460     0  04:20           0        15.5       0.391
  J74                  JUNCTION     0.000    1.452     0  04:20           0        15.5       0.576
  J75                  JUNCTION     0.006    1.443     0  04:22      0.0123        15.4       0.894
  J76                  JUNCTION     0.000    1.610     0  04:22           0          16       0.211
  J77                  JUNCTION     0.091    1.668     0  04:20        0.27        16.2       0.388
  J78                  JUNCTION     0.000    1.657     0  04:21           0        16.1       0.291
  J79                  JUNCTION     0.000    1.649     0  04:22           0        16.1       0.106
  J80                  JUNCTION     0.014    1.655     0  04:25      0.0311          16       0.649
  J81                  JUNCTION     0.002    1.789     0  04:30     0.00543        16.8       1.177
  J82                  JUNCTION     0.000    1.777     0  04:32           0        16.6       0.465
  J83                  JUNCTION     0.000    1.775     0  04:34           0        16.5       0.346
  J84                  JUNCTION     0.000    1.849     0  04:30           0          17       0.183
  J85                  JUNCTION     0.000    1.846     0  04:31           0          17       0.342
  J86                  JUNCTION     0.000    1.841     0  04:33           0        16.9       0.352
  J87                  JUNCTION     0.003    1.862     0  04:35     0.00838          17       0.149
  J88                  JUNCTION     0.000    1.865     0  04:36           0        16.9       0.226
  J89                  JUNCTION     0.000    1.884     0  04:36           0        17.1       0.341
  J90                  JUNCTION     0.000    2.071     0  04:30           0        18.5       0.115
  J91                  JUNCTION     0.000    2.069     0  04:31           0        18.5       0.161
  J92                  JUNCTION     0.000    2.069     0  04:32    3.44e-06        18.4       0.199
  J93                  JUNCTION     0.000    2.076     0  04:33           0        18.4       0.106
  J94                  JUNCTION     0.000    2.077     0  04:33    6.22e-06        18.4       0.122
  J95                  JUNCTION     0.000    2.078     0  04:34           0        18.4       0.046
  J96                  JUNCTION     0.000    2.140     0  04:31           0        18.9       0.171
  J97                  JUNCTION     0.000    2.138     0  04:32           0        18.9       0.146
  J98                  JUNCTION     0.000    2.136     0  04:32           0        18.9       0.129
  J99                  JUNCTION     0.000    2.135     0  04:33           0        18.9       0.110
  J100                 JUNCTION     0.000    2.134     0  04:33           0        18.8       0.093
  J101                 JUNCTION     0.000    2.132     0  04:33           0        18.8       0.107
  J102                 JUNCTION     0.000    2.131     0  04:34           0        18.8       0.083
  J103                 JUNCTION     0.000    2.188     0  04:35           0          19       0.062
  J104                 JUNCTION     0.000    2.201     0  04:35           0          19       0.082
  J105                 JUNCTION     0.000    2.199     0  04:35           0          19       0.102
  J106                 JUNCTION     0.000    2.198     0  04:35           0          19       0.114
  J107                 JUNCTION     0.000    2.196     0  04:36           0          19       0.116
  J108                 JUNCTION     0.000    2.194     0  04:36    2.19e-05        18.9       0.105
  J109                 JUNCTION     0.000    2.193     0  04:36           0        18.9       0.088
  J110                 JUNCTION     0.000    2.191     0  04:37           0        18.9       0.086
  J111                 JUNCTION     0.000    2.191     0  04:37    0.000189        18.9       0.063
  J112                 JUNCTION     0.000    2.225     0  04:37           0        19.1       0.089
  J113                 JUNCTION     0.000    2.224     0  04:38           0        19.1       0.086
  J114                 JUNCTION     0.000    2.223     0  04:38           0        19.1       0.074
  J115                 JUNCTION     0.000    2.222     0  04:38           0          19       0.054
  J116                 JUNCTION     0.000    2.222     0  04:38    6.31e-06          19       0.071
  J117                 JUNCTION     0.000    2.221     0  04:38           0          19       0.088
  J118                 JUNCTION     0.000    2.221     0  04:39           0          19       0.076
  J119                 JUNCTION     0.000    2.220     0  04:39           0          19       0.074
  J120                 JUNCTION     0.000    2.220     0  04:39           0          19       0.091
  FID2451              JUNCTION     0.000    1.139     0  04:09           0        14.7       0.227
  J121                 JUNCTION     0.006    1.776     0  04:34      0.0164        16.4       0.105
  J122                 JUNCTION     0.000    1.777     0  04:35    0.000746        16.4       0.092
  FID3706              JUNCTION     0.000    2.076     0  04:33           0        18.5       0.159
  FID2831              JUNCTION     0.000    2.141     0  04:31           0          19       0.101
  FID2689              OUTFALL      0.000    2.220     0  04:39           0          19       0.000
  
  
  **********************
  Node Surcharge Summary
  **********************
  
  Surcharging occurs when water rises above the top of the highest conduit.
  ---------------------------------------------------------------------
                                               Max. Height   Min. Depth
                                   Hours       Above Crown    Below Rim
  Node                 Type      Surcharged         Meters       Meters
  ---------------------------------------------------------------------
  FID2446              JUNCTION        0.08          0.037        0.000
  FID2719              JUNCTION        0.05          0.381        0.000
  J89                  JUNCTION        0.07          0.001        0.000
  
  
  *********************
  Node Flooding Summary
  *********************
  
  Flooding refers to all water that overflows a node, whether it ponds or not.
  --------------------------------------------------------------------------
                                                             Total   Maximum
                                 Maximum   Time of Max       Flood    Ponded
                        Hours       Rate    Occurrence      Volume     Depth
  Node                 Flooded       CMS   days hr:min    10^6 ltr    Meters
  --------------------------------------------------------------------------
  FID2446                 0.08     0.005      0  03:34       0.001     0.037
  FID2719                 0.01     0.005      0  03:49       0.000     0.000
  J89                     0.07     0.004      0  04:32       0.000     0.001
  
  
  ***********************
  Outfall Loading Summary
  ***********************
  
  -----------------------------------------------------------------------------------------------------
                         Flow       Avg       Max       Total         Total         Total         Total
                         Freq      Flow      Flow      Volume           TSS            TP           TDP
  Outfall Node           Pcnt       CMS       CMS    10^6 ltr            kg            kg            kg
  -----------------------------------------------------------------------------------------------------
  FID2689               77.02     1.014     2.220      18.959      5660.894         4.089         6.234
  -----------------------------------------------------------------------------------------------------
  System                77.02     1.014     2.220      18.959      5660.894         4.089         6.234
  
  
  ********************
  Link Flow Summary
  ********************
  
  -----------------------------------------------------------------------------
                                 Maximum  Time of Max   Maximum    Max/    Max/
                                  |Flow|   Occurrence   |Veloc|    Full    Full
  Link                 Type          CMS  days hr:min     m/sec    Flow   Depth
  -----------------------------------------------------------------------------
  FID1123              CONDUIT     0.025     0  04:10      0.83    0.42    0.72
  FID1139              CONDUIT     0.182     0  04:05      1.67    1.31    0.91
  FID1148              CONDUIT     0.191     0  04:10      1.07    0.47    0.32
  FID1149              CONDUIT     0.191     0  04:10      2.24    0.07    0.36
  FID3364              CONDUIT     0.205     0  04:10      1.01    0.17    0.44
  FID3671              CONDUIT     0.011     0  04:14      1.14    0.08    0.19
  FID3672              CONDUIT     0.038     0  04:15      1.60    0.28    0.36
  FID3762              CONDUIT     0.075     0  04:15      1.93    0.23    0.48
  FID3765              CONDUIT     0.164     0  04:15      2.79    0.46    0.58
  FID4112              CONDUIT     0.199     0  04:05      1.78    0.35    0.41
  FID4186              CONDUIT     0.013     0  04:05      0.98    0.06    0.17
  FID4187              CONDUIT     0.013     0  04:05      1.55    0.03    0.12
  FID4201              CONDUIT     0.140     0  04:05      1.28    1.44    0.92
  FID4202              CONDUIT     0.139     0  04:05      1.47    1.02    0.78
  FID4203              CONDUIT     0.000     0  00:00      0.00    0.00    0.31
  FID4299              CONDUIT     0.008     0  03:30      0.99    0.03    0.12
  FID4372              CONDUIT     0.257     0  04:05      1.05    0.04    0.39
  FID4498              CONDUIT     0.049     0  04:10      0.44    0.18    0.72
  FID4806              CONDUIT     0.210     0  04:05      5.05    0.03    0.11
  FID4807              CONDUIT     0.002     0  03:30      0.76    0.01    0.08
  FID4882              CONDUIT     0.000     0  03:51      0.01    0.00    0.52
  FID4884              CONDUIT     0.076     0  04:10      1.94    0.03    0.18
  FID4914              CONDUIT     0.016     0  04:10      0.23    0.06    0.58
  FID4915              CONDUIT     0.003     0  03:55      0.25    0.09    0.21
  FID4916              CONDUIT     0.003     0  03:55      0.29    0.09    0.16
  FID4917              CONDUIT     0.004     0  03:55      0.76    0.01    0.54
  FID5307              CONDUIT     0.014     0  04:05      0.48    0.24    0.30
  FID5308              CONDUIT     0.007     0  03:30      1.24    0.04    0.13
  FID5312              CONDUIT     0.013     0  04:05      0.64    0.08    0.19
  FID5865              CONDUIT     0.442     0  04:10      4.73    0.14    0.37
  C9                   CHANNEL     0.667     0  04:15      0.66    0.07    0.48
  C12                  CHANNEL     0.668     0  04:20      0.46    0.29    0.57
  C13                  CHANNEL     0.680     0  04:20      0.62    0.30    0.59
  C14                  CHANNEL     0.465     0  04:34      0.69    0.20    0.61
  C52                  CONDUIT     0.210     0  04:05      1.55    0.33    0.56
  C130                 CONDUIT     0.043     0  04:05      0.67    0.81    0.42
  C131                 CONDUIT     0.043     0  04:05      1.48    0.09    0.48
  C139                 CONDUIT     0.002     0  03:32      0.09    0.02    0.52
  C191                 CHANNEL     0.499     0  04:19      0.48    0.22    0.64
  C193                 CHANNEL     0.517     0  04:18      0.38    0.23    0.74
  C194                 CHANNEL     0.530     0  04:33      0.30    0.23    0.79
  C195                 CHANNEL     0.534     0  04:33      0.35    0.10    0.63
  C196                 CONDUIT     0.489     0  04:19      0.45    0.36    0.67
  C197                 CONDUIT     0.657     0  04:15      0.24    0.31    0.88
  C198                 CHANNEL     0.730     0  04:15      0.31    0.14    0.53
  C199                 CHANNEL     0.731     0  04:15      0.32    3.19    0.61
  C200                 CHANNEL     0.732     0  04:15      0.34    2.89    0.59
  C201                 CHANNEL     0.735     0  04:15      0.35    0.22    0.49
  C202                 CHANNEL     0.741     0  04:15      0.35    0.22    0.50
  C203                 CHANNEL     0.746     0  04:15      0.35    0.22    0.51
  C204                 CHANNEL     0.751     0  04:15      0.51    0.22    0.52
  C205                 CONDUIT     0.894     0  04:05      0.35    0.62    0.64
  C206                 CHANNEL     1.069     0  04:05      0.43    0.32    0.53
  C207                 CHANNEL     1.027     0  04:05      0.42    0.30    0.53
  C208                 CHANNEL     0.961     0  04:06      0.40    0.28    0.52
  C209                 CHANNEL     0.950     0  04:07      0.40    0.28    0.52
  C210                 CHANNEL     0.954     0  04:07      0.48    0.29    0.61
  C211                 CHANNEL     0.961     0  04:08      0.47    0.35    0.56
  C212                 CONDUIT     1.248     0  04:05      0.47    0.72    0.67
  C213                 CHANNEL     1.237     0  04:05      0.61    0.45    0.56
  C214                 CHANNEL     1.219     0  04:05      0.63    0.44    0.54
  C215                 CONDUIT     1.152     0  04:08      0.41    0.67    0.70
  C216                 CONDUIT     1.127     0  04:09      0.51    0.84    0.58
  C217                 CONDUIT     1.137     0  04:09      0.43    0.45    0.45
  C218                 CHANNEL     1.284     0  04:09      0.54    0.46    0.63
  C219                 CHANNEL     1.279     0  04:10      0.54    0.46    0.63
  C220                 CHANNEL     1.273     0  04:10      0.55    0.46    0.61
  C221                 CHANNEL     1.272     0  04:11      0.57    0.46    0.59
  C222                 CONDUIT     1.328     0  04:11      0.55    0.89    0.69
  C223                 CHANNEL     1.413     0  04:11      1.38    0.18    0.60
  C224                 CHANNEL     1.406     0  04:12      0.52    0.91    0.91
  C225                 CHANNEL     1.400     0  04:21      0.53    0.91    0.90
  C226                 CHANNEL     1.395     0  04:21      0.54    0.91    0.88
  C227                 CONDUIT     1.390     0  04:23      0.42    1.13    0.94
  C228                 CHANNEL     1.400     0  04:23      0.68    0.57    0.74
  C229                 CONDUIT     1.457     0  04:20      0.35    0.26    0.54
  C230                 CHANNEL     1.460     0  04:20      0.68    0.60    0.77
  C231                 CHANNEL     1.452     0  04:20      0.67    0.59    0.76
  C232                 CHANNEL     1.442     0  04:22      0.67    0.59    0.76
  C233                 CHANNEL     1.435     0  04:26      0.66    0.59    0.77
  C234                 CONDUIT     1.444     0  04:25      0.50    0.60    0.61
  C235                 CHANNEL     1.448     0  04:25      0.66    0.59    0.78
  C236                 CHANNEL     1.610     0  04:22      0.69    0.77    0.87
  C237                 CHANNEL     1.609     0  04:22      0.68    0.77    0.87
  C238                 CHANNEL     1.657     0  04:21      0.71    0.79    0.87
  C239                 CHANNEL     1.649     0  04:22      0.71    0.79    0.87
  C240                 CHANNEL     1.647     0  04:23      0.71    0.77    0.87
  C241                 CHANNEL     1.647     0  04:22      0.76    0.79    0.87
  C242                 CONDUIT     1.655     0  04:22      0.53    0.58    0.70
  C243                 CHANNEL     1.653     0  04:25      0.74    0.79    0.84
  C244                 CHANNEL     1.650     0  04:31      0.94    0.27    0.50
  C245                 CONDUIT     1.651     0  04:31      0.63    0.45    0.64
  C246                 CHANNEL     1.781     0  04:30      0.61    0.57    0.74
  C247                 CHANNEL     1.777     0  04:32      0.62    0.57    0.72
  C248                 CHANNEL     1.775     0  04:34      0.65    0.57    0.70
  C249                 CHANNEL     1.776     0  04:34      2.75    0.72    0.72
  C250                 CONDUIT     1.777     0  04:35      0.75    0.65    0.58
  C251                 CONDUIT     1.778     0  04:35      0.76    0.65    0.58
  C252                 CHANNEL     1.849     0  04:30      2.04    0.75    0.68
  C253                 CHANNEL     1.846     0  04:31      0.84    0.42    0.68
  C254                 CHANNEL     1.841     0  04:33      1.55    0.42    0.73
  C255                 CHANNEL     1.839     0  04:34      1.66    0.42    0.79
  C256                 CHANNEL     1.862     0  04:35      0.48    0.42    0.84
  C257                 CHANNEL     1.863     0  04:35      2.07    0.42    0.87
  C258                 CONDUIT     1.863     0  04:36      0.63    0.68    0.73
  C259                 CHANNEL     1.865     0  04:36      0.65    0.42    0.93
  C260                 CHANNEL     1.867     0  04:36      1.28    0.42    0.96
  C261                 CHANNEL     1.884     0  04:36      0.58    0.43    0.99
  C262                 CHANNEL     1.887     0  04:36      0.53    0.43    1.00
  C263                 CHANNEL     1.891     0  04:37      0.49    0.44    0.71
  C264                 CONDUIT     1.894     0  04:37      0.59    0.98    0.77
  C265                 CHANNEL     2.071     0  04:30      0.62    0.48    0.64
  C266                 CHANNEL     2.069     0  04:31      0.66    0.41    0.69
  C267                 CHANNEL     2.069     0  04:32      0.65    0.41    0.69
  C268                 CHANNEL     2.069     0  04:33      0.65    0.41    0.69
  C269                 CHANNEL     2.076     0  04:33      0.88    0.41    0.69
  C270                 CHANNEL     2.077     0  04:33      0.66    0.41    0.69
  C271                 CHANNEL     2.078     0  04:34      0.66    0.41    0.69
  C272                 CHANNEL     2.078     0  04:34      0.66    0.41    0.69
  C273                 CHANNEL     2.140     0  04:31      0.68    0.42    0.69
  C274                 CHANNEL     2.138     0  04:32      0.70    0.42    0.68
  C275                 CHANNEL     2.136     0  04:32      0.71    0.42    0.68
  C276                 CHANNEL     2.135     0  04:33      0.73    0.42    0.66
  C277                 CHANNEL     2.134     0  04:33      0.76    0.42    0.65
  C278                 CHANNEL     2.132     0  04:33      0.80    0.42    0.63
  C279                 CHANNEL     2.131     0  04:34      0.92    0.42    0.59
  C280                 CHANNEL     2.130     0  04:36      0.76    0.72    0.81
  C281                 CHANNEL     2.188     0  04:35      0.78    0.74    0.81
  C282                 CHANNEL     2.187     0  04:35      0.79    0.74    0.80
  C283                 CHANNEL     2.201     0  04:35      0.81    0.75    0.79
  C284                 CHANNEL     2.199     0  04:35      0.82    0.75    0.78
  C285                 CHANNEL     2.198     0  04:35      0.85    0.75    0.75
  C286                 CHANNEL     2.196     0  04:36      0.95    0.53    0.74
  C287                 CHANNEL     2.194     0  04:36      0.95    0.53    0.74
  C288                 CHANNEL     2.193     0  04:36      0.95    0.53    0.74
  C289                 CHANNEL     2.191     0  04:37      0.95    0.53    0.74
  C290                 CHANNEL     2.191     0  04:37      0.95    0.53    0.74
  C291                 CHANNEL     2.190     0  04:37      0.94    0.53    0.74
  C292                 CHANNEL     2.225     0  04:37      0.96    0.54    0.74
  C293                 CHANNEL     2.224     0  04:38      0.96    0.54    0.74
  C294                 CHANNEL     2.223     0  04:38      0.96    0.54    0.74
  C295                 CHANNEL     2.222     0  04:38      0.96    0.54    0.74
  C296                 CHANNEL     2.222     0  04:38      0.96    0.54    0.74
  C297                 CHANNEL     2.221     0  04:38      0.96    0.54    0.74
  C298                 CHANNEL     2.221     0  04:39      0.97    0.54    0.74
  C299                 CHANNEL     2.220     0  04:39      0.98    0.54    0.73
  C300                 CHANNEL     2.220     0  04:39      1.00    0.54    0.72
  C301                 CHANNEL     2.220     0  04:39      1.52    0.40    0.47
  C302                 CHANNEL     0.666     0  04:15      0.57    0.10    0.43
  C303                 CHANNEL     0.506     0  04:19      0.43    0.22    0.68
  C353                 CONDUIT     0.076     0  04:15      1.87    0.03    0.11
  
  
  ***************************
  Flow Classification Summary
  ***************************
  
  -------------------------------------------------------------------------------------
                      Adjusted    ---------- Fraction of Time in Flow Class ---------- 
                       /Actual         Up    Down  Sub   Sup   Up    Down  Norm  Inlet 
  Conduit               Length    Dry  Dry   Dry   Crit  Crit  Crit  Crit  Ltd   Ctrl  
  -------------------------------------------------------------------------------------
  FID1123                 1.00   0.18  0.00  0.00  0.32  0.00  0.00  0.50  0.22  0.00
  FID1139                 1.00   0.16  0.00  0.00  0.20  0.00  0.00  0.63  0.14  0.00
  FID1148                 1.00   0.14  0.00  0.00  0.52  0.00  0.00  0.34  0.00  0.00
  FID1149                 1.00   0.15  0.00  0.00  0.46  0.06  0.00  0.33  0.39  0.00
  FID3364                 1.00   0.14  0.01  0.00  0.86  0.00  0.00  0.00  0.70  0.00
  FID3671                 1.00   0.22  0.00  0.00  0.00  0.00  0.00  0.78  0.00  0.00
  FID3672                 1.00   0.18  0.00  0.00  0.00  0.00  0.00  0.82  0.00  0.00
  FID3762                 1.00   0.01  0.16  0.00  0.71  0.12  0.00  0.00  0.67  0.00
  FID3765                 1.00   0.01  0.16  0.00  0.66  0.17  0.00  0.00  0.68  0.00
  FID4112                 1.00   0.16  0.00  0.00  0.00  0.00  0.00  0.84  0.00  0.00
  FID4186                 1.00   0.22  0.00  0.00  0.36  0.15  0.00  0.27  0.00  0.00
  FID4187                 1.00   0.23  0.00  0.00  0.00  0.00  0.00  0.77  0.00  0.00
  FID4201                 1.00   0.16  0.00  0.00  0.76  0.00  0.00  0.08  0.44  0.00
  FID4202                 1.00   0.19  0.00  0.00  0.00  0.00  0.00  0.81  0.00  0.00
  FID4203                 1.00   0.17  0.83  0.00  0.00  0.00  0.00  0.00  0.00  0.00
  FID4299                 1.00   0.23  0.00  0.00  0.00  0.00  0.00  0.77  0.00  0.00
  FID4372                 1.00   0.07  0.11  0.00  0.82  0.00  0.00  0.00  0.67  0.00
  FID4498                 1.00   0.14  0.00  0.00  0.85  0.00  0.00  0.01  0.59  0.00
  FID4806                 1.00   0.17  0.00  0.00  0.00  0.00  0.00  0.83  0.00  0.00
  FID4807                 1.00   0.24  0.00  0.00  0.00  0.00  0.00  0.76  0.00  0.00
  FID4882                 1.00   0.23  0.31  0.00  0.29  0.00  0.00  0.17  0.59  0.00
  FID4884                 1.00   0.15  0.00  0.00  0.21  0.03  0.00  0.61  0.16  0.00
  FID4914                 1.00   0.11  0.07  0.00  0.81  0.00  0.00  0.00  0.66  0.00
  FID4915                 1.00   0.24  0.00  0.00  0.76  0.00  0.00  0.01  0.49  0.00
  FID4916                 1.00   0.24  0.00  0.00  0.58  0.00  0.00  0.18  0.12  0.00
  FID4917                 1.00   0.25  0.00  0.00  0.43  0.01  0.00  0.31  0.33  0.00
  FID5307                 1.00   0.22  0.00  0.00  0.75  0.00  0.00  0.03  0.49  0.00
  FID5308                 1.00   0.23  0.00  0.00  0.00  0.00  0.00  0.77  0.00  0.00
  FID5312                 1.00   0.23  0.00  0.00  0.00  0.00  0.00  0.77  0.00  0.00
  FID5865                 1.00   0.14  0.00  0.00  0.19  0.13  0.00  0.53  0.23  0.00
  C9                      1.00   0.00  0.00  0.00  1.00  0.00  0.00  0.00  0.00  0.00
  C12                     1.00   0.00  0.00  0.00  1.00  0.00  0.00  0.00  0.00  0.00
  C13                     1.00   0.00  0.00  0.00  1.00  0.00  0.00  0.00  0.00  0.00
  C14                     1.00   0.00  0.00  0.00  1.00  0.00  0.00  0.00  0.00  0.00
  C52                     1.00   0.04  0.14  0.00  0.82  0.01  0.00  0.00  0.68  0.00
  C130                    1.00   0.22  0.00  0.00  0.54  0.00  0.00  0.24  0.00  0.00
  C131                    1.00   0.24  0.00  0.00  0.39  0.02  0.00  0.36  0.30  0.00
  C139                    1.00   0.14  0.48  0.00  0.37  0.00  0.01  0.00  0.49  0.00
  C191                    1.00   0.00  0.00  0.00  1.00  0.00  0.00  0.00  0.00  0.00
  C193                    1.00   0.00  0.00  0.00  1.00  0.00  0.00  0.00  0.00  0.00
  C194                    1.00   0.00  0.00  0.00  1.00  0.00  0.00  0.00  0.00  0.00
  C195                    1.00   0.01  0.00  0.00  0.99  0.00  0.00  0.00  0.00  0.00
  C196                    1.00   0.00  0.00  0.00  1.00  0.00  0.00  0.00  0.00  0.00
  C197                    1.00   0.01  0.00  0.00  0.99  0.00  0.00  0.00  0.00  0.00
  C198                    1.00   0.01  0.00  0.00  0.99  0.00  0.00  0.00  0.00  0.00
  C199                    1.00   0.01  0.00  0.00  0.99  0.00  0.00  0.00  0.00  0.00
  C200                    1.00   0.01  0.00  0.00  0.99  0.00  0.00  0.00  0.00  0.00
  C201                    1.00   0.01  0.00  0.00  0.99  0.00  0.00  0.00  0.00  0.00
  C202                    1.00   0.01  0.00  0.00  0.99  0.00  0.00  0.00  0.00  0.00
  C203                    1.00   0.01  0.00  0.00  0.99  0.00  0.00  0.00  0.00  0.00
  C204                    1.00   0.01  0.00  0.00  0.99  0.00  0.00  0.00  0.00  0.00
  C205                    1.00   0.02  0.00  0.00  0.98  0.00  0.00  0.00  0.00  0.00
  C206                    1.00   0.02  0.00  0.00  0.98  0.00  0.00  0.00  0.00  0.00
  C207                    1.00   0.02  0.00  0.00  0.98  0.00  0.00  0.00  0.00  0.00
  C208                    1.00   0.02  0.00  0.00  0.98  0.00  0.00  0.00  0.00  0.00
  C209                    1.00   0.02  0.00  0.00  0.98  0.00  0.00  0.00  0.00  0.00
  C210                    1.00   0.02  0.00  0.00  0.98  0.00  0.00  0.00  0.00  0.00
  C211                    1.00   0.02  0.00  0.00  0.98  0.00  0.00  0.00  0.00  0.00
  C212                    1.00   0.02  0.00  0.00  0.98  0.00  0.00  0.00  0.00  0.00
  C213                    1.00   0.02  0.00  0.00  0.98  0.00  0.00  0.00  0.00  0.00
  C214                    1.00   0.02  0.00  0.00  0.98  0.00  0.00  0.00  0.00  0.00
  C215                    1.00   0.03  0.00  0.00  0.97  0.00  0.00  0.00  0.70  0.00
  C216                    1.00   0.03  0.00  0.00  0.97  0.00  0.00  0.00  0.00  0.00
  C217                    1.00   0.03  0.00  0.00  0.97  0.00  0.00  0.00  0.00  0.00
  C218                    1.00   0.03  0.00  0.00  0.97  0.00  0.00  0.00  0.00  0.00
  C219                    1.00   0.03  0.00  0.00  0.97  0.00  0.00  0.00  0.00  0.00
  C220                    1.00   0.04  0.00  0.00  0.96  0.00  0.00  0.00  0.00  0.00
  C221                    1.00   0.04  0.00  0.00  0.96  0.00  0.00  0.00  0.00  0.00
  C222                    1.00   0.04  0.00  0.00  0.96  0.00  0.00  0.00  0.00  0.00
  C223                    1.00   0.04  0.00  0.00  0.96  0.00  0.00  0.00  0.01  0.00
  C224                    1.00   0.04  0.00  0.00  0.96  0.00  0.00  0.00  0.00  0.00
  C225                    1.00   0.04  0.00  0.00  0.96  0.00  0.00  0.00  0.00  0.00
  C226                    1.00   0.04  0.00  0.00  0.96  0.00  0.00  0.00  0.00  0.00
  C227                    1.00   0.05  0.00  0.00  0.95  0.00  0.00  0.00  0.00  0.00
  C228                    1.00   0.05  0.00  0.00  0.95  0.00  0.00  0.00  0.00  0.00
  C229                    1.00   0.05  0.00  0.00  0.95  0.00  0.00  0.00  0.00  0.00
  C230                    1.00   0.05  0.00  0.00  0.95  0.00  0.00  0.00  0.00  0.00
  C231                    1.00   0.06  0.00  0.00  0.94  0.00  0.00  0.00  0.01  0.00
  C232                    1.00   0.06  0.00  0.00  0.94  0.00  0.00  0.00  0.00  0.00
  C233                    1.00   0.06  0.00  0.00  0.94  0.00  0.00  0.00  0.03  0.00
  C234                    1.00   0.06  0.00  0.00  0.94  0.00  0.00  0.00  0.00  0.00
  C235                    1.00   0.06  0.00  0.00  0.94  0.00  0.00  0.00  0.00  0.00
  C236                    1.00   0.06  0.00  0.00  0.94  0.00  0.00  0.00  0.00  0.00
  C237                    1.00   0.07  0.00  0.00  0.93  0.00  0.00  0.00  0.00  0.00
  C238                    1.00   0.07  0.00  0.00  0.93  0.00  0.00  0.00  0.00  0.00
  C239                    1.00   0.07  0.00  0.00  0.93  0.00  0.00  0.00  0.00  0.00
  C240                    1.00   0.07  0.00  0.00  0.93  0.00  0.00  0.00  0.00  0.00
  C241                    1.00   0.07  0.00  0.00  0.93  0.00  0.00  0.00  0.00  0.00
  C242                    1.00   0.07  0.00  0.00  0.93  0.00  0.00  0.00  0.00  0.00
  C243                    1.00   0.07  0.00  0.00  0.93  0.00  0.00  0.00  0.00  0.00
  C244                    1.00   0.07  0.00  0.00  0.92  0.01  0.00  0.00  0.00  0.00
  C245                    1.00   0.08  0.00  0.00  0.92  0.00  0.00  0.00  0.00  0.00
  C246                    1.00   0.08  0.00  0.00  0.92  0.00  0.00  0.00  0.51  0.00
  C247                    1.00   0.09  0.00  0.00  0.91  0.00  0.00  0.00  0.00  0.00
  C248                    1.00   0.10  0.00  0.00  0.90  0.00  0.00  0.00  0.00  0.00
  C249                    1.00   0.11  0.00  0.00  0.89  0.00  0.00  0.00  0.00  0.00
  C250                    1.00   0.12  0.00  0.00  0.88  0.00  0.00  0.00  0.00  0.00
  C251                    1.00   0.13  0.00  0.00  0.87  0.00  0.00  0.00  0.00  0.00
  C252                    1.00   0.13  0.00  0.00  0.87  0.00  0.00  0.00  0.00  0.00
  C253                    1.00   0.13  0.00  0.00  0.87  0.00  0.00  0.00  0.00  0.00
  C254                    1.00   0.14  0.00  0.00  0.86  0.00  0.00  0.00  0.04  0.00
  C255                    1.00   0.14  0.00  0.00  0.86  0.00  0.00  0.00  0.00  0.00
  C256                    1.00   0.13  0.01  0.00  0.86  0.00  0.00  0.00  0.00  0.00
  C257                    1.00   0.13  0.00  0.00  0.87  0.00  0.00  0.00  0.00  0.00
  C258                    1.00   0.13  0.02  0.00  0.85  0.00  0.00  0.00  0.00  0.00
  C259                    1.00   0.13  0.00  0.00  0.87  0.00  0.00  0.00  0.00  0.00
  C260                    1.00   0.15  0.01  0.00  0.84  0.00  0.00  0.00  0.00  0.00
  C261                    1.00   0.15  0.00  0.00  0.85  0.00  0.00  0.00  0.00  0.00
  C262                    1.00   0.15  0.00  0.00  0.85  0.00  0.00  0.00  0.00  0.00
  C263                    1.00   0.14  0.00  0.00  0.86  0.00  0.00  0.00  0.00  0.00
  C264                    1.00   0.14  0.00  0.00  0.86  0.00  0.00  0.00  0.01  0.00
  C265                    1.00   0.14  0.00  0.00  0.86  0.00  0.00  0.00  0.00  0.00
  C266                    1.00   0.14  0.00  0.00  0.86  0.00  0.00  0.00  0.00  0.00
  C267                    1.00   0.17  0.00  0.00  0.83  0.00  0.00  0.00  0.00  0.00
  C268                    1.00   0.18  0.00  0.00  0.82  0.00  0.00  0.00  0.00  0.00
  C269                    1.00   0.18  0.00  0.00  0.82  0.00  0.00  0.00  0.00  0.00
  C270                    1.00   0.18  0.00  0.00  0.82  0.00  0.00  0.00  0.00  0.00
  C271                    1.00   0.16  0.02  0.00  0.82  0.00  0.00  0.00  0.01  0.00
  C272                    1.00   0.15  0.01  0.00  0.84  0.00  0.00  0.00  0.00  0.00
  C273                    1.00   0.15  0.00  0.00  0.85  0.00  0.00  0.00  0.00  0.00
  C274                    1.00   0.16  0.00  0.00  0.84  0.00  0.00  0.00  0.00  0.00
  C275                    1.00   0.19  0.00  0.00  0.81  0.00  0.00  0.00  0.00  0.00
  C276                    1.00   0.19  0.00  0.00  0.81  0.00  0.00  0.00  0.00  0.00
  C277                    1.00   0.19  0.00  0.00  0.81  0.00  0.00  0.00  0.00  0.00
  C278                    1.00   0.20  0.00  0.00  0.80  0.00  0.00  0.00  0.00  0.00
  C279                    1.00   0.20  0.00  0.00  0.80  0.00  0.00  0.00  0.00  0.00
  C280                    1.00   0.16  0.04  0.00  0.80  0.00  0.00  0.00  0.00  0.00
  C281                    1.00   0.16  0.00  0.00  0.84  0.00  0.00  0.00  0.01  0.00
  C282                    1.00   0.17  0.00  0.00  0.83  0.00  0.00  0.00  0.00  0.00
  C283                    1.00   0.18  0.00  0.00  0.82  0.00  0.00  0.00  0.00  0.00
  C284                    1.00   0.20  0.00  0.00  0.80  0.00  0.00  0.00  0.00  0.00
  C285                    1.00   0.21  0.00  0.00  0.79  0.00  0.00  0.00  0.00  0.00
  C286                    1.00   0.21  0.00  0.00  0.79  0.00  0.00  0.00  0.24  0.00
  C287                    1.00   0.17  0.04  0.00  0.79  0.00  0.00  0.00  0.22  0.00
  C288                    1.00   0.17  0.00  0.00  0.83  0.00  0.00  0.00  0.00  0.00
  C289                    1.00   0.21  0.00  0.00  0.79  0.00  0.00  0.00  0.00  0.00
  C290                    1.00   0.15  0.06  0.00  0.79  0.00  0.00  0.00  0.00  0.00
  C291                    1.00   0.15  0.00  0.00  0.85  0.00  0.00  0.00  0.03  0.00
  C292                    1.00   0.18  0.00  0.00  0.82  0.00  0.00  0.00  0.00  0.00
  C293                    1.00   0.18  0.00  0.00  0.82  0.00  0.00  0.00  0.00  0.00
  C294                    1.00   0.20  0.00  0.00  0.80  0.00  0.00  0.00  0.00  0.00
  C295                    1.00   0.22  0.00  0.00  0.78  0.00  0.00  0.00  0.00  0.00
  C296                    1.00   0.22  0.00  0.00  0.78  0.00  0.00  0.00  0.00  0.00
  C297                    1.00   0.22  0.00  0.00  0.78  0.00  0.00  0.00  0.00  0.00
  C298                    1.00   0.22  0.00  0.00  0.78  0.00  0.00  0.00  0.00  0.00
  C299                    1.00   0.23  0.00  0.00  0.77  0.00  0.00  0.00  0.00  0.00
  C300                    1.00   0.23  0.00  0.00  0.77  0.00  0.00  0.00  0.00  0.00
  C301                    1.00   0.23  0.00  0.00  0.77  0.00  0.00  0.00  0.00  0.00
  C302                    1.00   0.00  0.00  0.00  1.00  0.00  0.00  0.00  0.00  0.00
  C303                    1.00   0.00  0.00  0.00  1.00  0.00  0.00  0.00  0.00  0.00
  C353                    1.00   0.18  0.00  0.00  0.00  0.00  0.00  0.82  0.00  0.00
  
  
  *************************
  Conduit Surcharge Summary
  *************************
  
  ----------------------------------------------------------------------------
                                                           Hours        Hours 
                         --------- Hours Full --------   Above Full   Capacity
  Conduit                Both Ends  Upstream  Dnstream   Normal Flow   Limited
  ----------------------------------------------------------------------------
  FID1123                     0.01      0.01      0.56      0.01         0.01
  FID1139                     0.01      0.05      0.01      0.08         0.01
  FID4201                     0.01      0.08      0.01      0.18         0.01
  FID4202                     0.01      0.01      0.01      0.03         0.01
  FID4498                     0.01      0.01      1.56      0.01         0.01
  FID4882                     0.01      0.01      2.07      0.01         0.01
  FID4914                     0.01      0.01      2.08      0.01         0.01
  FID4917                     0.01      0.01      0.98      0.01         0.01
  C199                        0.01      0.01      0.01      8.53         0.01
  C200                        0.01      0.01      0.01      8.47         0.01
  C227                        0.01      0.01      0.01      0.54         0.01
  C261                        0.01      0.01      0.07      0.01         0.01
  C262                        0.07      0.07      0.85      0.01         0.01
  
  
  ***************************
  Link Pollutant Load Summary
  ***************************
  
  --------------------------------------------------------------
                                 TSS            TP           TDP
  Link                            kg            kg            kg
  --------------------------------------------------------------
  FID1123                      4.210         0.001         0.020
  FID1139                     88.934         0.032         0.138
  FID1148                    169.837         0.076         0.254
  FID1149                    169.559         0.076         0.254
  FID3364                    196.616         0.095         0.307
  FID3671                      4.143         0.006         0.016
  FID3672                     61.768         0.028         0.067
  FID3762                    137.982         0.092         0.212
  FID3765                    197.871         0.121         0.312
  FID4112                     90.460         0.044         0.111
  FID4186                     10.286         0.012         0.028
  FID4187                      9.989         0.012         0.027
  FID4201                     69.039         0.034         0.073
  FID4202                     67.939         0.033         0.071
  FID4203                      0.000         0.000         0.000
  FID4299                     10.381         0.006         0.012
  FID4372                    955.530         0.272         0.600
  FID4498                     60.295         0.063         0.055
  FID4806                   1621.291         1.036         0.476
  FID4807                      0.000         0.000         0.003
  FID4882                      0.164         0.000         0.000
  FID4884                     31.269         0.009         0.086
  FID4914                     31.851         0.022         0.050
  FID4915                      2.560         0.002         0.004
  FID4916                      0.295         0.000         0.003
  FID4917                      0.126         0.000         0.003
  FID5307                     20.739         0.009         0.027
  FID5308                     14.239         0.007         0.012
  FID5312                     18.674         0.008         0.026
  FID5865                    238.333         0.890         0.377
  C9                         161.680         1.061         1.342
  C12                        160.452         1.046         1.323
  C13                        199.452         1.053         1.353
  C14                        130.618         0.694         0.895
  C52                        278.905         0.146         0.410
  C130                        26.139         0.009         0.036
  C131                        25.696         0.009         0.036
  C139                         3.537         0.001         0.003
  C191                       196.471         0.721         0.970
  C193                       197.265         0.703         0.947
  C194                       194.457         0.698         0.944
  C195                       194.012         0.695         0.941
  C196                       192.479         0.719         0.958
  C197                       392.070         0.814         1.250
  C198                       529.846         0.904         1.460
  C199                       532.348         0.902         1.458
  C200                       531.052         0.899         1.454
  C201                       537.902         0.896         1.450
  C202                       545.995         0.894         1.460
  C203                       544.946         0.891         1.457
  C204                       543.130         0.888         1.453
  C205                       710.319         0.957         1.657
  C206                       799.515         0.999         1.765
  C207                       803.931         0.997         1.767
  C208                       812.348         1.003         1.786
  C209                       803.484         0.995         1.774
  C210                       804.039         0.993         1.772
  C211                       802.708         0.991         1.769
  C212                      1038.645         1.121         2.101
  C213                      1045.948         1.123         2.105
  C214                      1046.065         1.122         2.105
  C215                      1117.818         1.159         2.197
  C216                      1067.771         1.130         2.148
  C217                      1136.828         1.162         2.217
  C218                      1413.474         1.305         2.623
  C219                      1418.146         1.304         2.624
  C220                      1420.543         1.301         2.622
  C221                      1436.709         1.308         2.664
  C222                      1552.973         1.363         2.823
  C223                      1739.145         1.438         3.038
  C224                      1761.182         1.442         3.056
  C225                      1756.848         1.435         3.062
  C226                      1755.914         1.431         3.058
  C227                      1828.599         1.453         3.129
  C228                      1782.497         1.437         3.112
  C229                      1952.103         1.542         3.396
  C230                      1959.753         1.546         3.404
  C231                      1985.277         1.552         3.425
  C232                      1971.039         1.541         3.404
  C233                      2022.306         1.555         3.463
  C234                      1977.546         1.533         3.411
  C235                      2000.975         1.543         3.431
  C236                      2953.635         1.814         4.028
  C237                      2984.327         1.819         4.043
  C238                      3219.175         1.929         4.351
  C239                      3201.379         1.921         4.335
  C240                      3188.459         1.916         4.324
  C241                      3202.116         1.923         4.335
  C242                      3229.967         1.932         4.365
  C243                      3323.249         1.963         4.442
  C244                      3249.966         1.947         4.414
  C245                      3253.129         1.947         4.416
  C246                      4993.419         3.039         4.948
  C247                      4885.967         2.986         4.935
  C248                      4927.859         3.004         4.946
  C249                      4865.359         2.971         4.917
  C250                      4872.318         2.973         4.925
  C251                      4875.579         2.974         4.924
  C252                      5066.682         3.065         5.228
  C253                      5102.552         3.079         5.239
  C254                      5123.506         3.087         5.243
  C255                      5115.581         3.081         5.234
  C256                      5154.181         3.131         5.278
  C257                      5137.964         3.123         5.280
  C258                      5139.165         3.123         5.279
  C259                      5178.005         3.139         5.287
  C260                      5139.159         3.119         5.273
  C261                      5178.670         3.131         5.359
  C262                      5221.719         3.147         5.363
  C263                      5193.368         3.128         5.348
  C264                      5328.561         3.132         5.352
  C265                      5346.254         3.997         5.714
  C266                      5363.284         4.007         5.715
  C267                      5353.798         4.002         5.711
  C268                      5368.638         4.014         5.712
  C269                      5338.135         3.988         5.722
  C270                      5356.651         4.003         5.724
  C271                      5338.951         3.988         5.718
  C272                      5335.586         3.984         5.717
  C273                      5525.031         4.076         5.975
  C274                      5520.466         4.071         5.970
  C275                      5516.248         4.066         5.966
  C276                      5514.380         4.064         5.963
  C277                      5510.128         4.059         5.960
  C278                      5509.444         4.058         5.959
  C279                      5511.200         4.059         5.957
  C280                      5505.248         4.053         5.955
  C281                      5592.471         4.083         6.091
  C282                      5595.888         4.085         6.091
  C283                      5621.184         4.093         6.125
  C284                      5622.461         4.093         6.124
  C285                      5624.904         4.094         6.123
  C286                      5627.467         4.096         6.122
  C287                      5627.376         4.094         6.120
  C288                      5624.887         4.091         6.118
  C289                      5624.097         4.090         6.116
  C290                      5624.472         4.089         6.115
  C291                      5619.176         4.083         6.112
  C292                      5665.622         4.100         6.248
  C293                      5664.187         4.098         6.246
  C294                      5665.611         4.099         6.245
  C295                      5661.143         4.093         6.242
  C296                      5662.282         4.094         6.241
  C297                      5665.245         4.096         6.241
  C298                      5665.516         4.096         6.240
  C299                      5662.227         4.092         6.237
  C300                      5664.648         4.093         6.236
  C301                      5660.894         4.089         6.234
  C302                       161.140         1.057         1.337
  C303                       197.388         0.714         0.961
  C353                        39.546         0.011         0.134
  

  Analysis begun on:  Tue Oct 10 17:41:25 2017
  Analysis ended on:  Tue Oct 10 17:41:39 2017
  Total elapsed time: 00:00:14