
  EPA STORM WATER MANAGEMENT MODEL - VERSION 5.1 (Build 5.1.010)
  --------------------------------------------------------------

  WARNING 04: minimum elevation drop used for Conduit C199
  WARNING 04: minimum elevation drop used for Conduit C200
  WARNING 02: maximum depth increased for Node FID1955
  WARNING 02: maximum depth increased for Node FID1960
  WARNING 02: maximum depth increased for Node FID1965
  WARNING 02: maximum depth increased for Node FID1968
  WARNING 02: maximum depth increased for Node FID2244
  WARNING 02: maximum depth increased for Node FID2442
  WARNING 02: maximum depth increased for Node FID2446
  WARNING 02: maximum depth increased for Node FID5504
  WARNING 02: maximum depth increased for Node FID5527
  WARNING 02: maximum depth increased for Node AFID6926
  WARNING 02: maximum depth increased for Node AFID7376
  
  *********************************************************
  NOTE: The summary statistics displayed in this report are
  based on results found at every computational time step,  
  not just on results from each reporting time step.
  *********************************************************
  
  ****************
  Analysis Options
  ****************
  Flow Units ............... CMS
  Process Models:
    Rainfall/Runoff ........ YES
    RDII ................... NO
    Snowmelt ............... NO
    Groundwater ............ NO
    Flow Routing ........... YES
    Ponding Allowed ........ YES
    Water Quality .......... YES
  Infiltration Method ...... GREEN_AMPT
  Flow Routing Method ...... DYNWAVE
  Starting Date ............ MAY-06-2016 15:00:00
  Ending Date .............. MAY-07-2016 00:00:00
  Antecedent Dry Days ...... 0.0
  Report Time Step ......... 00:01:00
  Wet Time Step ............ 00:01:00
  Dry Time Step ............ 01:00:00
  Routing Time Step ........ 5.00 sec
  Variable Time Step ....... YES
  Maximum Trials ........... 8
  Number of Threads ........ 3
  Head Tolerance ........... 0.001500 m
  
  
  **************************        Volume         Depth
  Runoff Quantity Continuity     hectare-m            mm
  **************************     ---------       -------
  Total Precipitation ......         2.583         6.709
  Evaporation Loss .........         0.000         0.000
  Infiltration Loss ........         1.269         3.297
  Surface Runoff ...........         0.746         1.936
  Final Storage ............         0.569         1.478
  Continuity Error (%) .....        -0.027
  
  
  **************************           TSS            TP           TDP
  Runoff Quality Continuity             kg            kg            kg
  **************************    ----------    ----------    ----------
  Initial Buildup ..........         0.000         0.000         0.000
  Surface Buildup ..........     16325.078        10.012         7.116
  Wet Deposition ...........         0.000         0.000         0.000
  Sweeping Removal .........         0.000         0.000         0.000
  Infiltration Loss ........         0.000         0.000         0.000
  BMP Removal ..............         0.720         0.000         0.000
  Surface Runoff ...........      7203.825         3.912         1.933
  Remaining Buildup ........      9120.532         6.100         5.183
  Continuity Error (%) .....         0.000         0.000         0.000
  
  
  **************************        Volume        Volume
  Flow Routing Continuity        hectare-m      10^6 ltr
  **************************     ---------     ---------
  Dry Weather Inflow .......         0.000         0.000
  Wet Weather Inflow .......         0.745         7.455
  Groundwater Inflow .......         0.000         0.000
  RDII Inflow ..............         0.000         0.000
  External Inflow ..........         1.384        13.843
  External Outflow .........         1.518        15.182
  Flooding Loss ............         0.000         0.000
  Evaporation Loss .........         0.000         0.000
  Exfiltration Loss ........         0.000         0.000
  Initial Stored Volume ....         0.000         0.000
  Final Stored Volume ......         0.618         6.181
  Continuity Error (%) .....        -0.307
  
  
  **************************           TSS            TP           TDP
  Quality Routing Continuity            kg            kg            kg
  **************************    ----------    ----------    ----------
  Dry Weather Inflow .......         0.000         0.000         0.000
  Wet Weather Inflow .......      7190.258         3.908         1.932
  Groundwater Inflow .......         0.000         0.000         0.000
  RDII Inflow ..............         0.000         0.000         0.000
  External Inflow ..........       137.985         1.039         1.284
  External Outflow .........      6903.665         4.461         2.640
  Flooding Loss ............         0.000         0.000         0.000
  Exfiltration Loss ........         0.000         0.000         0.000
  Mass Reacted .............         0.000         0.000         0.000
  Initial Stored Mass ......         0.000         0.000         0.000
  Final Stored Mass ........        45.149         0.399         0.577
  Continuity Error (%) .....         5.178         1.746        -0.075
  
  
  *************************
  Highest Continuity Errors
  *************************
  Node FID2827 (2.25%)
  Node FID2824 (2.15%)
  Node J72 (1.65%)
  Node J19 (1.53%)
  Node FID2449 (1.46%)
  
  
  ***************************
  Time-Step Critical Elements
  ***************************
  Link C241 (91.22%)
  Link C14 (7.87%)
  
  
  ********************************
  Highest Flow Instability Indexes
  ********************************
  All links are stable.
  
  
  *************************
  Routing Time Step Summary
  *************************
  Minimum Time Step           :     0.56 sec
  Average Time Step           :     0.95 sec
  Maximum Time Step           :     5.00 sec
  Percent in Steady State     :     0.00
  Average Iterations per Step :     2.00
  Percent Not Converging      :     0.00
  
  
  ***************************
  Subcatchment Runoff Summary
  ***************************
  
  --------------------------------------------------------------------------------------------------------
                            Total      Total      Total      Total      Total       Total     Peak  Runoff
                           Precip      Runon       Evap      Infil     Runoff      Runoff   Runoff   Coeff
  Subcatchment                 mm         mm         mm         mm         mm    10^6 ltr      CMS
  --------------------------------------------------------------------------------------------------------
  S0                         5.84       0.00       0.00       5.11       0.46        0.00     0.00   0.078
  S1                         5.84       0.00       0.00       2.84       1.85        0.18     0.04   0.317
  S2                         6.35       0.00       0.00       2.29       2.62        0.45     0.14   0.413
  S3                         5.84       0.00       0.00       3.98       1.16        0.04     0.02   0.199
  S4                         5.84       0.00       0.00       3.03       1.75        0.17     0.08   0.299
  S6                         6.35       0.00       0.00       1.46       3.16        0.06     0.02   0.498
  S7                         6.35       0.00       0.00       1.27       0.49        0.19     0.04   0.078
  S8                         6.35       0.00       0.00       1.46       3.18        0.00     0.00   0.501
  S9                         6.35       0.00       0.00       2.12       2.75        0.00     0.00   0.433
  S10                        6.35       0.00       0.00       2.23       2.68        0.01     0.00   0.423
  S11                        6.35       0.00       0.00       5.10       0.82        0.00     0.00   0.128
  S12                        6.35       0.00       0.00       2.44       2.55        0.00     0.00   0.401
  S13                        6.35       0.00       0.00       2.67       2.38        0.18     0.06   0.374
  S14                        6.35       0.00       0.00       4.60       1.14        0.01     0.00   0.180
  S16                        6.35       0.00       0.00       1.86       3.97        0.22     0.06   0.625
  S17                        6.35       0.00       0.00       2.39       2.55        0.49     0.15   0.402
  S18                        6.35       0.00       0.00       1.79       2.97        0.00     0.00   0.468
  S19                        6.35       0.00       0.00       3.69       1.72        0.04     0.01   0.272
  S20                        6.35       0.00       0.00       2.54       2.48        0.01     0.01   0.391
  S21                        6.35       0.00       0.00       3.45       2.72        1.46     0.38   0.428
  S22                        6.35       0.00       0.00       2.06       2.79        0.00     0.00   0.439
  S23                        6.35       0.00       0.00       4.02       1.51        0.02     0.01   0.238
  S24                        6.35       0.00       0.00       3.83       1.64        0.03     0.01   0.258
  S25                        6.35       0.00       0.00       2.73       2.34        0.03     0.01   0.369
  S27                        6.35       0.00       0.00       3.06       2.14        0.01     0.00   0.338
  S28                        5.84       0.00       0.00       5.83       0.01        0.00     0.00   0.001
  S29                        5.84       0.00       0.00       5.80       0.03        0.00     0.00   0.004
  S30                        6.35       0.00       0.00       6.33       0.01        0.00     0.00   0.002
  S31                        6.35       0.00       0.00       6.34       0.01        0.00     0.00   0.001
  S32                        6.35       0.00       0.00       4.81       1.01        0.00     0.00   0.159
  S33                        6.35       0.00       0.00       1.90       2.89        0.03     0.01   0.455
  S34                        6.35       0.00       0.00       3.36       0.01        0.00     0.00   0.002
  S35                        6.35       0.00       0.00       3.81       1.65        0.01     0.00   0.260
  S36                        6.35       0.00       0.00       5.15       0.78        0.01     0.00   0.123
  S37                        6.35       0.00       0.00       2.20       2.70        0.01     0.01   0.425
  S39                        6.35       0.00       0.00       3.95       1.56        0.23     0.08   0.245
  S40                        6.35       0.00       0.00       4.57       1.16        0.03     0.01   0.182
  S41                        6.35       0.00       0.00       2.51       2.49        0.34     0.11   0.392
  S42                        6.35       0.00       0.00       2.88       2.25        0.23     0.07   0.354
  S43                        6.35       0.00       0.00       4.86       0.97        0.02     0.01   0.152
  S44                        6.35       0.00       0.00       2.94       2.20        0.50     0.15   0.347
  S45                        8.13       0.00       0.00       4.84       2.40        0.00     0.00   0.296
  S47                        8.13       0.00       0.00       3.86       3.11        0.13     0.12   0.383
  S48                        8.13       0.00       0.00       4.46       2.69        0.01     0.01   0.331
  S49                        8.13       0.00       0.00       4.00       2.99        0.56     0.33   0.367
  S51                        8.13       0.00       0.00       7.07       0.78        0.01     0.01   0.095
  S52                        8.13       0.00       0.00       4.29       2.79        0.19     0.15   0.343
  S53                        8.13       0.00       0.00       4.15       2.88        0.40     0.26   0.354
  S54                        8.13       0.00       0.00       5.12       2.17        0.21     0.07   0.268
  S55                        8.13       0.00       0.00       4.30       2.76        0.45     0.14   0.340
  S56                        8.13       0.00       0.00       6.07       1.49        0.00     0.00   0.184
  S57                        8.13       0.00       0.00       3.81       3.12        0.03     0.01   0.384
  S58                        8.13       0.00       0.00       4.61       2.54        0.10     0.03   0.313
  S59                        8.13       0.00       0.00       7.09       0.75        0.02     0.01   0.093
  S60                        8.13       0.00       0.00       5.97       1.56        0.04     0.01   0.192
  S61                        8.13       0.00       0.00       7.23       0.65        0.01     0.00   0.080
  S62                        8.13       0.00       0.00       6.78       0.98        0.02     0.02   0.121
  S63                        6.35       0.00       0.00       5.41       0.61        0.01     0.00   0.096
  S64                        6.35       0.00       0.00       3.13       2.10        0.03     0.01   0.331
  S65                        6.35       0.00       0.00       4.38       1.27        0.21     0.06   0.200
  
  
  ****************************
  Subcatchment Washoff Summary
  ****************************
  
  --------------------------------------------------------------
                                 TSS            TP           TDP
  Subcatchment                    kg            kg            kg
  --------------------------------------------------------------
  S0                           0.370         0.000         0.000
  S1                         228.375         0.206         0.031
  S2                         384.465         0.300         0.085
  S3                          81.423         0.079         0.009
  S4                         229.925         0.204         0.040
  S6                          42.821         0.041         0.008
  S7                          42.617         0.018         0.091
  S8                           0.387         0.000         0.000
  S9                           0.461         0.000         0.000
  S10                          6.356         0.004         0.002
  S11                          0.513         0.000         0.000
  S12                          0.256         0.000         0.000
  S13                        172.070         0.163         0.025
  S14                         14.807         0.004         0.003
  S16                         95.398         0.057         0.076
  S17                        430.254         0.318         0.096
  S18                          0.462         0.000         0.000
  S19                         46.657         0.013         0.012
  S20                         10.641         0.004         0.004
  S21                       1312.814         0.228         0.457
  S22                          3.256         0.001         0.001
  S23                         42.591         0.009         0.009
  S24                         47.276         0.040         0.008
  S25                         30.654         0.007         0.008
  S27                         12.619         0.004         0.004
  S28                          0.000         0.000         0.000
  S29                          0.000         0.000         0.000
  S30                          0.000         0.000         0.000
  S31                          0.000         0.000         0.000
  S32                         10.297         0.002         0.002
  S33                         26.186         0.016         0.009
  S34                         10.934         0.001         0.000
  S35                          8.192         0.003         0.003
  S36                         28.054         0.004         0.004
  S37                         13.092         0.004         0.004
  S39                        356.443         0.190         0.069
  S40                         55.099         0.011         0.010
  S41                        317.357         0.251         0.074
  S42                        226.131         0.146         0.061
  S43                         47.957         0.008         0.008
  S44                        507.804         0.313         0.128
  S45                          0.960         0.000         0.000
  S47                         93.616         0.053         0.026
  S48                          5.417         0.002         0.002
  S49                        417.300         0.239         0.124
  S51                         24.325         0.004         0.005
  S52                        147.464         0.095         0.044
  S53                        308.729         0.242         0.083
  S54                        218.757         0.084         0.060
  S55                        371.978         0.183         0.112
  S56                          0.370         0.000         0.000
  S57                         19.569         0.005         0.007
  S58                         87.444         0.055         0.027
  S59                         56.589         0.029         0.004
  S60                         64.454         0.014         0.013
  S61                         18.714         0.004         0.002
  S62                         59.262         0.011         0.011
  S63                         39.690         0.012         0.004
  S64                         36.503         0.008         0.008
  S65                        387.670         0.223         0.058
  --------------------------------------------------------------
  System                    7203.825         3.912         1.933
  
  
  ******************
  Node Depth Summary
  ******************
  
  ---------------------------------------------------------------------------------
                                 Average  Maximum  Maximum  Time of Max    Reported
                                   Depth    Depth      HGL   Occurrence   Max Depth
  Node                 Type       Meters   Meters   Meters  days hr:min      Meters
  ---------------------------------------------------------------------------------
  FID1936              JUNCTION     0.15     0.34  1376.64     0  04:05        0.10
  FID1955              JUNCTION     0.16     0.30  1376.22     0  04:15        0.09
  FID1960              JUNCTION     0.15     0.25  1376.11     0  04:15        0.08
  FID1965              JUNCTION     0.15     0.24  1376.54     0  04:15        0.07
  FID1968              JUNCTION     0.14     0.20  1376.60     0  04:15        0.06
  FID2239              JUNCTION     0.15     0.26  1374.77     0  04:05        0.08
  FID2241              JUNCTION     0.13     0.19  1373.32     0  04:05        0.06
  FID2242              JUNCTION     0.14     0.20  1374.24     0  04:05        0.06
  FID2244              JUNCTION     0.13     0.18  1374.54     0  04:05        0.06
  FID2440              JUNCTION     0.42     0.62  1374.87     0  04:22        0.19
  FID2442              JUNCTION     0.00     0.00  1375.27     0  00:00        0.00
  FID2446              JUNCTION     0.16     0.43  1376.23     0  04:05        0.13
  FID2447              JUNCTION     0.15     0.38  1376.08     0  04:05        0.11
  FID2455              JUNCTION     0.33     0.57  1374.56     0  04:22        0.17
  FID2711              JUNCTION     0.14     0.21  1370.39     0  04:05        0.06
  FID2719              JUNCTION     0.16     0.33  1370.43     0  04:05        0.10
  FID2720              JUNCTION     0.16     0.31  1370.51     0  04:05        0.09
  FID2824              JUNCTION     0.13     0.18  1371.46     0  04:10        0.05
  FID2827              JUNCTION     0.14     0.22  1371.52     0  04:10        0.07
  FID2828              JUNCTION     0.14     0.22  1371.54     0  04:10        0.07
  FID2832              JUNCTION     0.16     0.27  1370.87     0  04:20        0.08
  FID2833              JUNCTION     0.21     0.41  1371.03     0  04:20        0.13
  FID2839              JUNCTION     0.16     0.23  1371.43     0  04:10        0.07
  FID2873              JUNCTION     0.16     0.25  1370.95     0  04:20        0.08
  FID2964              JUNCTION     0.17     0.29  1371.07     0  04:10        0.09
  FID2965              JUNCTION     0.45     0.78  1371.04     0  04:38        0.24
  FID4584              JUNCTION     0.12     0.23  1371.57     0  04:20        0.07
  FID5068              JUNCTION     0.14     0.19  1375.57     0  04:05        0.06
  FID5072              JUNCTION     0.51     0.79  1374.08     0  04:33        0.24
  FID5140              JUNCTION     0.13     0.16  1373.38     0  03:30        0.05
  FID5435              JUNCTION     0.18     0.36  1373.11     0  03:30        0.11
  FID5437              JUNCTION     0.13     0.17  1373.12     0  04:05        0.05
  FID5503              JUNCTION     0.12     0.16  1371.49     0  04:10        0.05
  FID5504              JUNCTION     0.15     0.23  1371.59     0  04:20        0.07
  FID5527              JUNCTION     0.14     0.20  1372.70     0  04:10        0.06
  FID5568              JUNCTION     0.49     0.77  1373.16     0  04:42        0.23
  FID5784              JUNCTION     0.49     0.77  1372.76     0  04:46        0.23
  FID5785              JUNCTION     0.14     0.22  1374.65     0  04:06        0.07
  AFID6926             JUNCTION     0.15     0.22  1370.02     0  04:15        0.07
  AFID7360             JUNCTION     0.50     0.85  1370.98     0  04:39        0.26
  AFID7363             JUNCTION     0.48     0.84  1371.00     0  04:39        0.25
  AFID7376             JUNCTION     0.19     0.34  1371.57     0  04:20        0.10
  AFID7377             JUNCTION     0.41     0.67  1371.35     0  04:36        0.20
  AFID7705             JUNCTION     0.52     0.62  1375.58     0  04:16        0.19
  AFID7706             JUNCTION     0.58     0.67  1375.59     0  04:16        0.21
  AFID7792             JUNCTION     0.17     0.33  1375.13     0  04:20        0.10
  AFID8223             JUNCTION     0.49     0.77  1372.77     0  04:46        0.23
  J1                   JUNCTION     0.75     0.78  1375.77     0  04:19        0.24
  FID4901              JUNCTION     0.48     0.56  1375.63     0  04:18        0.17
  J9                   JUNCTION     0.64     0.67  1375.76     0  04:20        0.20
  J11                  JUNCTION     0.49     0.52  1375.73     0  04:20        0.16
  J12                  JUNCTION     0.48     0.54  1375.66     0  04:19        0.17
  J13                  JUNCTION     0.48     0.55  1375.63     0  04:18        0.17
  FID4902              JUNCTION     0.50     0.58  1375.62     0  04:18        0.18
  J14                  JUNCTION     0.40     0.53  1375.44     0  04:20        0.16
  J15                  JUNCTION     0.37     0.54  1375.20     0  04:22        0.17
  J16                  JUNCTION     0.38     0.55  1375.19     0  04:22        0.17
  FID2449              JUNCTION     0.42     0.63  1374.95     0  04:24        0.19
  J17                  JUNCTION     0.32     0.57  1374.54     0  04:22        0.17
  J19                  JUNCTION     0.46     0.74  1374.29     0  04:32        0.23
  FID5069              JUNCTION     0.54     0.81  1374.07     0  04:33        0.25
  FID5139              JUNCTION     0.49     0.77  1373.13     0  04:42        0.24
  J24                  JUNCTION     0.50     0.78  1373.14     0  04:42        0.24
  FID4984              JUNCTION     0.51     0.79  1372.75     0  04:47        0.24
  FID2669              JUNCTION     0.36     0.65  1369.09     0  04:40        0.20
  FID2712              JUNCTION     0.38     0.68  1369.87     0  04:37        0.21
  FID2718              JUNCTION     0.39     0.69  1369.93     0  04:37        0.21
  FID2838              JUNCTION     0.56     0.93  1370.87     0  04:39        0.28
  FID2825              JUNCTION     0.61     1.00  1370.91     0  04:39        0.31
  FID2823              JUNCTION     0.66     1.06  1370.93     0  04:39        0.32
  FID5505              JUNCTION     0.56     0.93  1370.96     0  04:39        0.28
  FID5436              JUNCTION     0.52     0.79  1372.11     0  04:38        0.24
  FID5438              JUNCTION     0.46     0.72  1372.14     0  04:43        0.22
  J49                  JUNCTION     0.51     0.60  1375.62     0  04:17        0.18
  J50                  JUNCTION     0.55     0.64  1375.60     0  04:17        0.19
  J51                  JUNCTION     0.60     0.70  1375.59     0  04:16        0.21
  J52                  JUNCTION     0.62     0.71  1375.59     0  04:16        0.22
  J53                  JUNCTION     0.40     0.53  1375.45     0  04:21        0.16
  J54                  JUNCTION     0.40     0.52  1375.47     0  04:21        0.16
  J55                  JUNCTION     0.45     0.55  1375.57     0  04:16        0.17
  J56                  JUNCTION     0.43     0.53  1375.55     0  04:22        0.16
  J57                  JUNCTION     0.41     0.51  1375.53     0  04:22        0.15
  J58                  JUNCTION     0.41     0.51  1375.49     0  04:21        0.16
  FID1935              JUNCTION     0.41     0.54  1375.42     0  04:20        0.16
  J59                  JUNCTION     0.40     0.53  1375.40     0  04:21        0.16
  J60                  JUNCTION     0.40     0.53  1375.35     0  04:22        0.16
  J61                  JUNCTION     0.38     0.52  1375.29     0  04:23        0.16
  J62                  JUNCTION     0.37     0.51  1375.27     0  04:23        0.16
  J63                  JUNCTION     0.38     0.54  1375.23     0  04:22        0.17
  J64                  JUNCTION     0.37     0.54  1375.15     0  04:23        0.16
  J65                  JUNCTION     0.33     0.52  1375.10     0  04:24        0.16
  J66                  JUNCTION     0.41     0.62  1374.83     0  04:22        0.19
  J67                  JUNCTION     0.41     0.61  1374.76     0  04:23        0.19
  J68                  JUNCTION     0.39     0.60  1374.67     0  04:23        0.18
  J69                  JUNCTION     0.53     0.79  1374.51     0  04:23        0.24
  J70                  JUNCTION     0.51     0.77  1374.42     0  04:30        0.24
  J71                  JUNCTION     0.49     0.76  1374.36     0  04:31        0.23
  J72                  JUNCTION     0.52     0.79  1374.14     0  04:33        0.24
  J73                  JUNCTION     0.54     0.81  1374.04     0  04:34        0.25
  J74                  JUNCTION     0.54     0.81  1373.80     0  04:36        0.25
  J75                  JUNCTION     0.55     0.82  1373.66     0  04:38        0.25
  J76                  JUNCTION     0.49     0.77  1373.11     0  04:43        0.24
  J77                  JUNCTION     0.49     0.77  1372.98     0  04:44        0.24
  J78                  JUNCTION     0.49     0.77  1372.84     0  04:45        0.23
  J79                  JUNCTION     0.49     0.77  1372.78     0  04:46        0.23
  J80                  JUNCTION     0.43     0.69  1372.18     0  04:44        0.21
  J81                  JUNCTION     0.50     0.76  1371.75     0  04:42        0.23
  J82                  JUNCTION     0.49     0.75  1371.68     0  04:43        0.23
  J83                  JUNCTION     0.43     0.70  1371.50     0  04:41        0.21
  J84                  JUNCTION     0.39     0.63  1371.27     0  04:37        0.19
  J85                  JUNCTION     0.39     0.66  1371.18     0  04:38        0.20
  J86                  JUNCTION     0.41     0.71  1371.09     0  04:39        0.22
  J87                  JUNCTION     0.47     0.82  1371.01     0  04:39        0.25
  J88                  JUNCTION     0.54     0.91  1370.96     0  04:39        0.28
  J89                  JUNCTION     0.58     0.96  1370.95     0  04:39        0.29
  J90                  JUNCTION     0.54     0.91  1370.86     0  04:39        0.28
  J91                  JUNCTION     0.54     0.91  1370.79     0  04:39        0.28
  J92                  JUNCTION     0.53     0.91  1370.74     0  04:39        0.28
  J93                  JUNCTION     0.53     0.91  1370.63     0  04:38        0.28
  J94                  JUNCTION     0.53     0.91  1370.56     0  04:37        0.28
  J95                  JUNCTION     0.53     0.91  1370.54     0  04:36        0.28
  J96                  JUNCTION     0.53     0.90  1370.45     0  04:37        0.27
  J97                  JUNCTION     0.52     0.89  1370.38     0  04:38        0.27
  J98                  JUNCTION     0.51     0.87  1370.32     0  04:38        0.27
  J99                  JUNCTION     0.49     0.85  1370.25     0  04:38        0.26
  J100                 JUNCTION     0.48     0.82  1370.18     0  04:38        0.25
  J101                 JUNCTION     0.46     0.79  1370.11     0  04:38        0.24
  J102                 JUNCTION     0.39     0.69  1369.96     0  04:37        0.21
  J103                 JUNCTION     0.38     0.68  1369.91     0  04:37        0.21
  J104                 JUNCTION     0.38     0.67  1369.83     0  04:37        0.20
  J105                 JUNCTION     0.37     0.66  1369.78     0  04:37        0.20
  J106                 JUNCTION     0.36     0.64  1369.72     0  04:38        0.19
  J107                 JUNCTION     0.36     0.64  1369.57     0  04:38        0.19
  J108                 JUNCTION     0.36     0.64  1369.44     0  04:39        0.19
  J109                 JUNCTION     0.36     0.64  1369.33     0  04:39        0.20
  J110                 JUNCTION     0.36     0.64  1369.23     0  04:40        0.20
  J111                 JUNCTION     0.36     0.64  1369.13     0  04:40        0.20
  J112                 JUNCTION     0.36     0.65  1368.97     0  04:41        0.20
  J113                 JUNCTION     0.36     0.65  1368.87     0  04:41        0.20
  J114                 JUNCTION     0.36     0.65  1368.76     0  04:42        0.20
  J115                 JUNCTION     0.36     0.65  1368.70     0  04:42        0.20
  J116                 JUNCTION     0.36     0.65  1368.63     0  04:42        0.20
  J117                 JUNCTION     0.36     0.65  1368.53     0  04:43        0.20
  J118                 JUNCTION     0.36     0.65  1368.42     0  04:43        0.20
  J119                 JUNCTION     0.37     0.65  1368.35     0  04:43        0.20
  J120                 JUNCTION     0.38     0.65  1368.25     0  04:43        0.20
  FID2451              JUNCTION     0.41     0.62  1374.90     0  04:23        0.19
  J121                 JUNCTION     0.40     0.67  1371.42     0  04:39        0.20
  J122                 JUNCTION     0.41     0.67  1371.39     0  04:38        0.20
  FID3706              JUNCTION     0.53     0.91  1370.64     0  04:38        0.28
  FID2831              JUNCTION     0.54     0.91  1370.53     0  04:36        0.28
  FID2689              OUTFALL      0.23     0.42  1367.92     0  04:43        0.13
  
  
  *******************
  Node Inflow Summary
  *******************
  
  -------------------------------------------------------------------------------------------------
                                  Maximum  Maximum                  Lateral       Total        Flow
                                  Lateral    Total  Time of Max      Inflow      Inflow     Balance
                                   Inflow   Inflow   Occurrence      Volume      Volume       Error
  Node                 Type           CMS      CMS  days hr:min    10^6 ltr    10^6 ltr     Percent
  -------------------------------------------------------------------------------------------------
  FID1936              JUNCTION     0.155    0.155     0  04:05       0.187       0.187       0.091
  FID1955              JUNCTION     0.142    0.142     0  04:15        0.45        0.45       0.039
  FID1960              JUNCTION     0.066    0.066     0  04:15       0.205       0.205       0.084
  FID1965              JUNCTION     0.033    0.033     0  04:15       0.104       0.104       0.169
  FID1968              JUNCTION     0.010    0.010     0  04:15      0.0312      0.0312       0.562
  FID2239              JUNCTION     0.011    0.011     0  04:05      0.0314      0.0314       1.622
  FID2241              JUNCTION     0.000    0.009     0  04:05           0      0.0294       0.593
  FID2242              JUNCTION     0.009    0.009     0  04:05      0.0296      0.0296       0.610
  FID2244              JUNCTION     0.004    0.004     0  04:05      0.0115      0.0115       1.540
  FID2440              JUNCTION     0.000    1.034     0  04:20           0        14.5       0.278
  FID2442              JUNCTION     0.000    0.000     0  00:00           0           0       0.000 ltr
  FID2446              JUNCTION     0.115    0.115     0  04:05       0.132       0.132       0.140
  FID2447              JUNCTION     0.000    0.115     0  04:05           0       0.132       0.120
  FID2455              JUNCTION     0.070    1.064     0  04:22       0.228        14.5       0.270
  FID2711              JUNCTION     0.000    0.023     0  04:05           0      0.0373       0.486
  FID2719              JUNCTION     0.084    0.084     0  04:05       0.174       0.174       0.236
  FID2720              JUNCTION     0.024    0.024     0  04:05      0.0375      0.0375       0.568
  FID2824              JUNCTION     0.000    0.003     0  04:10    0.000523     0.00776       2.198
  FID2827              JUNCTION     0.000    0.003     0  04:10    0.000592      0.0074       2.303
  FID2828              JUNCTION     0.003    0.003     0  04:10     0.00699     0.00699       2.616
  FID2832              JUNCTION     0.000    0.140     0  04:20           0       0.452       0.048
  FID2833              JUNCTION     0.140    0.140     0  04:20       0.452       0.452       0.060
  FID2839              JUNCTION     0.043    0.043     0  04:10       0.193       0.193       0.111
  FID2873              JUNCTION     0.019    0.019     0  04:20      0.0594      0.0594       0.601
  FID2964              JUNCTION     0.060    0.060     0  04:10       0.221       0.221       0.076
  FID2965              JUNCTION     0.000    1.258     0  04:34           0        15.1       0.361
  FID4584              JUNCTION     0.000    0.000     0  03:37           0    0.000463      52.384
  FID5068              JUNCTION     0.005    0.005     0  04:05      0.0141      0.0141       1.249
  FID5072              JUNCTION     0.077    1.128     0  04:30       0.231        14.3       0.251
  FID5140              JUNCTION     0.001    0.001     0  03:30     0.00434     0.00434       3.885
  FID5435              JUNCTION     0.383    0.383     0  03:30        1.46        1.46       0.013
  FID5437              JUNCTION     0.001    0.001     0  04:05     0.00385     0.00385       4.739
  FID5503              JUNCTION     0.000    0.000     0  04:10     0.00056     0.00056      44.933
  FID5504              JUNCTION     0.056    0.056     0  04:20       0.179       0.179       0.136
  FID5527              JUNCTION     0.013    0.013     0  04:10      0.0372      0.0372       0.457
  FID5568              JUNCTION     0.002    1.116     0  04:38     0.00551          14       0.896
  FID5784              JUNCTION     0.000    1.122     0  04:43           0        13.9       0.125
  FID5785              JUNCTION     0.000    0.011     0  04:05           0      0.0309       0.113
  AFID6926             JUNCTION     0.044    0.044     0  04:15       0.182       0.182       0.098
  AFID7360             JUNCTION     0.000    1.256     0  04:39    0.000338          15       0.265
  AFID7363             JUNCTION     0.000    1.257     0  04:38           0        15.1       0.127
  AFID7376             JUNCTION     0.146    0.146     0  04:20        0.49       0.491       0.039
  AFID7377             JUNCTION     0.000    1.244     0  04:33           0        15.1       0.136
  AFID7705             JUNCTION     0.000    0.655     0  04:15           0        13.8       0.302
  AFID7706             JUNCTION     0.000    0.597     0  04:17           0        13.7       0.287
  AFID7792             JUNCTION     0.145    0.145     0  04:20       0.497       0.497       0.036
  AFID8223             JUNCTION     0.000    1.120     0  04:44           0        13.9       0.028
  J1                   JUNCTION     0.666    0.666     0  04:15          21          21       0.167
  FID4901              JUNCTION     0.000    0.470     0  04:20           0        13.7       0.266
  J9                   JUNCTION     0.000    0.665     0  04:15           0          21       0.341
  J11                  JUNCTION     0.000    0.663     0  04:15           0        20.9       0.605
  J12                  JUNCTION     0.006    0.666     0  04:22      0.0191        20.8       0.663
  J13                  JUNCTION    -0.220    0.674     0  04:36       -7.13        20.7      -0.205
  FID4902              JUNCTION     0.000    0.476     0  04:30           0        13.7       0.418
  J14                  JUNCTION     0.261    0.749     0  04:20       0.401        13.9       0.224
  J15                  JUNCTION     0.326    0.945     0  04:06       0.559        14.3       0.186
  J16                  JUNCTION     0.007    0.939     0  04:06     0.00776        14.3       0.187
  FID2449              JUNCTION     0.001    0.898     0  04:24     0.00112        14.1       1.483
  J17                  JUNCTION     0.108    1.151     0  04:20       0.338        14.8       0.135
  J19                  JUNCTION     0.011    1.112     0  04:23      0.0295        14.5       1.551
  FID5069              JUNCTION     0.000    1.127     0  04:30           0        14.3       0.223
  FID5139              JUNCTION     0.000    1.111     0  04:41           0        13.9       0.069
  J24                  JUNCTION     0.012    1.111     0  04:41      0.0335        13.9       0.100
  FID4984              JUNCTION     0.000    1.123     0  04:44           0        13.9       1.056
  FID2669              JUNCTION     0.000    1.413     0  04:39           0        15.4       0.092
  FID2712              JUNCTION     0.000    1.388     0  04:35           0        15.4       0.110
  FID2718              JUNCTION     0.000    1.379     0  04:35           0        15.3       0.078
  FID2838              JUNCTION     0.000    1.293     0  04:37           0        15.1       0.228
  FID2825              JUNCTION     0.000    1.273     0  04:39           0          15       0.379
  FID2823              JUNCTION     0.000    1.273     0  04:38           0          15       0.592
  FID5505              JUNCTION     0.000    1.274     0  04:36           0        15.1       0.164
  FID5436              JUNCTION     0.000    1.200     0  04:30           0        15.1       1.020
  FID5438              JUNCTION     0.000    1.123     0  04:48           0        13.7       0.191
  J49                  JUNCTION     0.000    0.478     0  04:30           0        13.6       0.674
  J50                  JUNCTION     0.000    0.483     0  04:34    0.000229        13.5       1.167
  J51                  JUNCTION     0.000    0.496     0  04:35           0        13.4       0.927
  J52                  JUNCTION     0.000    0.506     0  04:35           0        13.2       0.274
  J53                  JUNCTION     0.000    0.651     0  04:15           0        13.5       0.249
  J54                  JUNCTION     0.000    0.651     0  04:15           0        13.6       0.368
  J55                  JUNCTION     0.000    0.654     0  04:15           0        13.8       0.345
  J56                  JUNCTION     0.000    0.653     0  04:15           0        13.7       0.374
  J57                  JUNCTION     0.000    0.652     0  04:16           0        13.7       0.471
  J58                  JUNCTION     0.002    0.652     0  04:16     0.00561        13.6       0.504
  FID1935              JUNCTION     0.000    0.868     0  04:05           0          14       0.288
  J59                  JUNCTION     0.000    0.847     0  04:05           0          14       0.408
  J60                  JUNCTION     0.007    0.816     0  04:05     0.00781        13.9       0.638
  J61                  JUNCTION     0.000    0.783     0  04:21           0        13.9       0.429
  J62                  JUNCTION     0.000    0.779     0  04:23           0        13.8       0.194
  J63                  JUNCTION     0.000    0.780     0  04:23           0        13.8       0.197
  J64                  JUNCTION     0.000    0.932     0  04:07           0        14.3       0.196
  J65                  JUNCTION     0.022    0.930     0  04:07       0.025        14.3       1.146
  J66                  JUNCTION     0.000    1.028     0  04:20           0        14.4       0.350
  J67                  JUNCTION     0.000    1.022     0  04:20           0        14.4       0.519
  J68                  JUNCTION     0.007    1.018     0  04:22      0.0187        14.3       0.554
  J69                  JUNCTION     0.000    1.147     0  04:20           0        14.8       0.553
  J70                  JUNCTION     0.004    1.137     0  04:21     0.00939        14.7       0.710
  J71                  JUNCTION     0.000    1.121     0  04:22           0        14.6       0.518
  J72                  JUNCTION     0.009    1.101     0  04:30      0.0253        14.3       1.681
  J73                  JUNCTION     0.000    1.125     0  04:30           0        14.3       0.510
  J74                  JUNCTION     0.000    1.123     0  04:33           0        14.2       0.747
  J75                  JUNCTION     0.004    1.119     0  04:35     0.00976        14.1       1.152
  J76                  JUNCTION     0.000    1.111     0  04:41           0        13.9       0.284
  J77                  JUNCTION     0.063    1.126     0  04:40       0.214          14       0.520
  J78                  JUNCTION     0.000    1.123     0  04:42           0          14       0.389
  J79                  JUNCTION     0.000    1.121     0  04:43           0        13.9       0.142
  J80                  JUNCTION     0.009    1.120     0  04:47      0.0248        13.8       0.877
  J81                  JUNCTION     0.002    1.195     0  04:36     0.00434          15       1.481
  J82                  JUNCTION     0.000    1.192     0  04:42           0        14.8       0.589
  J83                  JUNCTION     0.000    1.192     0  04:44           0        14.7       0.458
  J84                  JUNCTION     0.000    1.244     0  04:34           0        15.1       0.242
  J85                  JUNCTION     0.000    1.243     0  04:35           0          15       0.449
  J86                  JUNCTION     0.000    1.242     0  04:37           0          15       0.478
  J87                  JUNCTION     0.003    1.257     0  04:37     0.00669        15.1       0.198
  J88                  JUNCTION     0.000    1.256     0  04:39           0          15       0.295
  J89                  JUNCTION     0.000    1.274     0  04:36           0        15.1       0.452
  J90                  JUNCTION     0.000    1.293     0  04:38           0        15.1       0.166
  J91                  JUNCTION     0.000    1.293     0  04:38           0          15       0.230
  J92                  JUNCTION     0.000    1.293     0  04:39     2.7e-06          15       0.292
  J93                  JUNCTION     0.000    1.299     0  04:40           0          15       0.159
  J94                  JUNCTION     0.000    1.299     0  04:40    4.89e-06          15       0.169
  J95                  JUNCTION     0.000    1.300     0  04:41           0        14.9       0.066
  J96                  JUNCTION     0.000    1.348     0  04:34           0        15.4       0.244
  J97                  JUNCTION     0.000    1.347     0  04:35           0        15.3       0.208
  J98                  JUNCTION     0.000    1.345     0  04:36           0        15.3       0.183
  J99                  JUNCTION     0.000    1.345     0  04:37           0        15.3       0.155
  J100                 JUNCTION     0.000    1.345     0  04:38           0        15.2       0.131
  J101                 JUNCTION     0.000    1.345     0  04:39           0        15.2       0.151
  J102                 JUNCTION     0.000    1.345     0  04:39           0        15.2       0.119
  J103                 JUNCTION     0.000    1.378     0  04:35           0        15.3       0.090
  J104                 JUNCTION     0.000    1.386     0  04:36           0        15.3       0.118
  J105                 JUNCTION     0.000    1.385     0  04:36           0        15.3       0.145
  J106                 JUNCTION     0.000    1.384     0  04:37           0        15.3       0.163
  J107                 JUNCTION     0.000    1.383     0  04:37           0        15.3       0.167
  J108                 JUNCTION     0.000    1.383     0  04:38    1.69e-05        15.2       0.151
  J109                 JUNCTION     0.000    1.382     0  04:38           0        15.2       0.127
  J110                 JUNCTION     0.000    1.381     0  04:39           0        15.2       0.125
  J111                 JUNCTION     0.000    1.381     0  04:39    0.000149        15.2       0.090
  J112                 JUNCTION     0.000    1.412     0  04:40           0        15.3       0.128
  J113                 JUNCTION     0.000    1.412     0  04:40           0        15.3       0.126
  J114                 JUNCTION     0.000    1.412     0  04:41           0        15.3       0.105
  J115                 JUNCTION     0.000    1.411     0  04:41           0        15.3       0.079
  J116                 JUNCTION     0.000    1.411     0  04:41    4.65e-06        15.3       0.105
  J117                 JUNCTION     0.000    1.411     0  04:42           0        15.3       0.129
  J118                 JUNCTION     0.000    1.410     0  04:42           0        15.2       0.112
  J119                 JUNCTION     0.000    1.410     0  04:43           0        15.2       0.114
  J120                 JUNCTION     0.000    1.410     0  04:43           0        15.2       0.133
  FID2451              JUNCTION     0.000    0.915     0  04:25           0          14       0.275
  J121                 JUNCTION     0.005    1.193     0  04:45      0.0131        14.7       0.135
  J122                 JUNCTION     0.000    1.194     0  04:45    0.000595        14.6       0.117
  FID3706              JUNCTION     0.000    1.298     0  04:39           0          15       0.224
  FID2831              JUNCTION     0.000    1.348     0  04:33           0        15.4       0.151
  FID2689              OUTFALL      0.000    1.410     0  04:43           0        15.2       0.000
  
  
  **********************
  Node Surcharge Summary
  **********************
  
  No nodes were surcharged.
  
  
  *********************
  Node Flooding Summary
  *********************
  
  No nodes were flooded.
  
  
  ***********************
  Outfall Loading Summary
  ***********************
  
  -----------------------------------------------------------------------------------------------------
                         Flow       Avg       Max       Total         Total         Total         Total
                         Freq      Flow      Flow      Volume           TSS            TP           TDP
  Outfall Node           Pcnt       CMS       CMS    10^6 ltr            kg            kg            kg
  -----------------------------------------------------------------------------------------------------
  FID2689               74.90     0.823     1.410      15.182      6816.397         4.102         2.212
  -----------------------------------------------------------------------------------------------------
  System                74.90     0.823     1.410      15.182      6816.397         4.102         2.212
  
  
  ********************
  Link Flow Summary
  ********************
  
  -----------------------------------------------------------------------------
                                 Maximum  Time of Max   Maximum    Max/    Max/
                                  |Flow|   Occurrence   |Veloc|    Full    Full
  Link                 Type          CMS  days hr:min     m/sec    Flow   Depth
  -----------------------------------------------------------------------------
  FID1123              CONDUIT     0.018     0  04:20      0.73    0.24    0.54
  FID1139              CONDUIT     0.082     0  04:05      1.53    0.46    0.48
  FID1148              CONDUIT     0.140     0  04:20      1.04    0.27    0.26
  FID1149              CONDUIT     0.140     0  04:20      2.16    0.04    0.29
  FID3364              CONDUIT     0.145     0  04:20      0.65    0.09    0.38
  FID3671              CONDUIT     0.010     0  04:15      1.30    0.06    0.16
  FID3672              CONDUIT     0.033     0  04:15      1.84    0.19    0.30
  FID3762              CONDUIT     0.066     0  04:15      1.26    0.16    0.48
  FID3765              CONDUIT     0.142     0  04:15      2.14    0.31    0.56
  FID4112              CONDUIT     0.154     0  04:05      1.99    0.21    0.31
  FID4186              CONDUIT     0.009     0  04:05      1.05    0.03    0.13
  FID4187              CONDUIT     0.009     0  04:05      1.66    0.02    0.09
  FID4201              CONDUIT     0.115     0  04:05      1.38    0.92    0.68
  FID4202              CONDUIT     0.114     0  04:05      1.64    0.65    0.59
  FID4203              CONDUIT     0.000     0  00:00      0.00    0.00    0.23
  FID4299              CONDUIT     0.005     0  04:05      1.04    0.02    0.09
  FID4372              CONDUIT     0.001     0  03:30      0.01    0.00    0.29
  FID4498              CONDUIT     0.060     0  04:10      0.66    0.21    0.66
  FID4806              CONDUIT     0.383     0  03:30      3.46    0.11    0.23
  FID4807              CONDUIT     0.001     0  04:05      0.80    0.01    0.06
  FID4882              CONDUIT     0.000     0  04:10      0.01    0.00    0.52
  FID4884              CONDUIT     0.056     0  04:20      2.06    0.01    0.12
  FID4914              CONDUIT     0.013     0  04:10      0.55    0.03    0.56
  FID4915              CONDUIT     0.003     0  04:10      0.21    0.06    0.17
  FID4916              CONDUIT     0.003     0  04:10      0.31    0.06    0.14
  FID4917              CONDUIT     0.003     0  04:10      0.82    0.01    0.52
  FID5307              CONDUIT     0.011     0  04:05      0.53    0.15    0.23
  FID5308              CONDUIT     0.004     0  04:05      1.27    0.02    0.09
  FID5312              CONDUIT     0.010     0  04:06      0.67    0.05    0.15
  FID5865              CONDUIT     0.043     0  04:10      1.59    0.02    0.24
  C9                   CHANNEL     0.665     0  04:15      0.60    0.09    0.51
  C12                  CHANNEL     0.663     0  04:35      0.41    0.36    0.62
  C13                  CHANNEL     0.674     0  04:36      0.55    0.37    0.64
  C14                  CHANNEL     0.457     0  04:36      0.55    0.25    0.65
  C52                  CONDUIT     0.145     0  04:20      1.02    0.18    0.52
  C130                 CONDUIT     0.023     0  04:05      0.59    0.33    0.28
  C131                 CONDUIT     0.023     0  04:05      1.52    0.04    0.35
  C139                 CONDUIT     0.001     0  04:20      0.03    0.01    0.35
  C191                 CHANNEL     0.478     0  04:30      0.42    0.26    0.68
  C193                 CHANNEL     0.496     0  04:35      0.33    0.27    0.78
  C194                 CHANNEL     0.506     0  04:35      0.27    0.28    0.82
  C195                 CHANNEL     0.508     0  04:35      0.31    0.13    0.65
  C196                 CONDUIT     0.471     0  04:30      0.40    0.43    0.72
  C197                 CONDUIT     0.597     0  04:17      0.22    0.35    0.92
  C198                 CHANNEL     0.654     0  04:15      0.26    0.16    0.55
  C199                 CHANNEL     0.653     0  04:15      0.27    3.57    0.64
  C200                 CHANNEL     0.652     0  04:16      0.29    3.22    0.62
  C201                 CHANNEL     0.651     0  04:16      0.28    0.24    0.51
  C202                 CHANNEL     0.651     0  04:15      0.29    0.24    0.52
  C203                 CHANNEL     0.651     0  04:15      0.28    0.24    0.52
  C204                 CHANNEL     0.652     0  04:28      0.41    0.24    0.53
  C205                 CONDUIT     0.742     0  04:20      0.29    0.64    0.65
  C206                 CHANNEL     0.847     0  04:05      0.35    0.31    0.53
  C207                 CHANNEL     0.812     0  04:05      0.34    0.30    0.53
  C208                 CHANNEL     0.783     0  04:21      0.33    0.29    0.52
  C209                 CHANNEL     0.779     0  04:23      0.33    0.29    0.52
  C210                 CHANNEL     0.780     0  04:23      0.40    0.30    0.61
  C211                 CHANNEL     0.782     0  04:24      0.38    0.36    0.55
  C212                 CONDUIT     0.937     0  04:06      0.36    0.68    0.66
  C213                 CHANNEL     0.932     0  04:07      0.47    0.42    0.55
  C214                 CHANNEL     0.923     0  04:07      0.49    0.42    0.54
  C215                 CONDUIT     0.898     0  04:24      0.33    0.65    0.70
  C216                 CONDUIT     0.902     0  04:25      0.41    0.84    0.58
  C217                 CONDUIT     0.917     0  04:25      0.35    0.46    0.45
  C218                 CHANNEL     1.028     0  04:20      0.43    0.47    0.63
  C219                 CHANNEL     1.022     0  04:20      0.43    0.46    0.63
  C220                 CHANNEL     1.016     0  04:23      0.43    0.46    0.62
  C221                 CHANNEL     1.019     0  04:24      0.45    0.46    0.60
  C222                 CONDUIT     1.063     0  04:23      0.44    0.89    0.69
  C223                 CHANNEL     1.147     0  04:20      0.55    0.18    0.60
  C224                 CHANNEL     1.134     0  04:21      0.42    0.92    0.91
  C225                 CHANNEL     1.121     0  04:22      0.43    0.91    0.89
  C226                 CHANNEL     1.110     0  04:24      0.47    0.90    0.87
  C227                 CONDUIT     1.097     0  04:31      0.34    1.11    0.93
  C228                 CHANNEL     1.098     0  04:34      0.54    0.56    0.73
  C229                 CONDUIT     1.125     0  04:30      0.27    0.25    0.54
  C230                 CHANNEL     1.125     0  04:30      0.53    0.58    0.75
  C231                 CHANNEL     1.123     0  04:33      0.53    0.57    0.75
  C232                 CHANNEL     1.119     0  04:35      0.53    0.57    0.76
  C233                 CHANNEL     1.116     0  04:38      0.55    0.57    0.73
  C234                 CONDUIT     1.110     0  04:41      0.42    0.57    0.56
  C235                 CHANNEL     1.111     0  04:41      0.56    0.57    0.72
  C236                 CHANNEL     1.111     0  04:41      0.53    0.67    0.80
  C237                 CHANNEL     1.110     0  04:42      0.53    0.67    0.80
  C238                 CHANNEL     1.123     0  04:42      0.54    0.67    0.80
  C239                 CHANNEL     1.121     0  04:43      0.54    0.67    0.80
  C240                 CHANNEL     1.120     0  04:44      0.54    0.66    0.79
  C241                 CHANNEL     1.120     0  04:44      0.68    0.67    0.79
  C242                 CONDUIT     1.121     0  04:44      0.42    0.49    0.64
  C243                 CHANNEL     1.120     0  04:47      0.57    0.67    0.76
  C244                 CHANNEL     1.123     0  04:48      0.68    0.23    0.45
  C245                 CONDUIT     1.123     0  04:48      0.47    0.39    0.59
  C246                 CHANNEL     1.192     0  04:37      0.46    0.48    0.67
  C247                 CHANNEL     1.192     0  04:42      0.47    0.48    0.66
  C248                 CHANNEL     1.192     0  04:44      0.50    0.48    0.63
  C249                 CHANNEL     1.193     0  04:45      3.42    0.60    0.65
  C250                 CONDUIT     1.194     0  04:45      0.56    0.55    0.52
  C251                 CONDUIT     1.194     0  04:45      0.56    0.55    0.52
  C252                 CHANNEL     1.244     0  04:34      6.49    0.63    0.61
  C253                 CHANNEL     1.243     0  04:35      0.91    0.35    0.61
  C254                 CHANNEL     1.242     0  04:37      0.45    0.35    0.65
  C255                 CHANNEL     1.242     0  04:39      0.41    0.35    0.70
  C256                 CHANNEL     1.257     0  04:37      0.40    0.36    0.75
  C257                 CHANNEL     1.257     0  04:38      2.41    0.36    0.78
  C258                 CONDUIT     1.256     0  04:39      0.47    0.58    0.66
  C259                 CHANNEL     1.256     0  04:39      0.41    0.36    0.83
  C260                 CHANNEL     1.257     0  04:40      0.40    0.36    0.87
  C261                 CHANNEL     1.274     0  04:36      0.47    0.36    0.89
  C262                 CHANNEL     1.273     0  04:38      0.83    0.36    0.95
  C263                 CHANNEL     1.273     0  04:39      0.42    0.37    0.65
  C264                 CONDUIT     1.273     0  04:40      0.43    0.83    0.70
  C265                 CHANNEL     1.293     0  04:38      0.50    0.38    0.58
  C266                 CHANNEL     1.293     0  04:38      0.48    0.32    0.63
  C267                 CHANNEL     1.293     0  04:39      0.52    0.32    0.63
  C268                 CHANNEL     1.293     0  04:40      0.48    0.32    0.63
  C269                 CHANNEL     1.299     0  04:40      0.49    0.32    0.63
  C270                 CHANNEL     1.299     0  04:40      0.49    0.32    0.63
  C271                 CHANNEL     1.300     0  04:41      0.49    0.32    0.63
  C272                 CHANNEL     1.300     0  04:41      0.49    0.32    0.63
  C273                 CHANNEL     1.348     0  04:34      0.51    0.33    0.63
  C274                 CHANNEL     1.347     0  04:35      0.52    0.33    0.62
  C275                 CHANNEL     1.345     0  04:36      0.53    0.33    0.61
  C276                 CHANNEL     1.345     0  04:37      0.56    0.33    0.60
  C277                 CHANNEL     1.345     0  04:38      0.58    0.33    0.58
  C278                 CHANNEL     1.345     0  04:39      0.62    0.33    0.56
  C279                 CHANNEL     1.345     0  04:39      0.73    0.33    0.52
  C280                 CHANNEL     1.346     0  04:40      0.57    0.57    0.70
  C281                 CHANNEL     1.378     0  04:35      0.59    0.59    0.70
  C282                 CHANNEL     1.377     0  04:35      0.59    0.59    0.69
  C283                 CHANNEL     1.386     0  04:36      0.60    0.59    0.69
  C284                 CHANNEL     1.385     0  04:36      0.61    0.59    0.68
  C285                 CHANNEL     1.384     0  04:37      0.63    0.59    0.66
  C286                 CHANNEL     1.383     0  04:37      0.72    0.42    0.65
  C287                 CHANNEL     1.383     0  04:38      0.72    0.42    0.65
  C288                 CHANNEL     1.382     0  04:38      0.72    0.42    0.65
  C289                 CHANNEL     1.381     0  04:39      0.72    0.42    0.65
  C290                 CHANNEL     1.381     0  04:39      0.71    0.42    0.66
  C291                 CHANNEL     1.381     0  04:40      0.71    0.42    0.66
  C292                 CHANNEL     1.412     0  04:40      0.73    0.43    0.66
  C293                 CHANNEL     1.412     0  04:40      0.72    0.43    0.66
  C294                 CHANNEL     1.412     0  04:41      0.72    0.43    0.66
  C295                 CHANNEL     1.411     0  04:41      0.72    0.43    0.66
  C296                 CHANNEL     1.411     0  04:41      0.72    0.43    0.66
  C297                 CHANNEL     1.411     0  04:42      0.72    0.43    0.66
  C298                 CHANNEL     1.410     0  04:42      0.72    0.43    0.66
  C299                 CHANNEL     1.410     0  04:43      0.72    0.43    0.66
  C300                 CHANNEL     1.410     0  04:43      0.72    0.43    0.66
  C301                 CHANNEL     1.410     0  04:43      1.16    0.32    0.41
  C302                 CHANNEL     0.663     0  04:15      0.52    0.13    0.46
  C303                 CHANNEL     0.483     0  04:34      0.37    0.27    0.72
  C353                 CONDUIT     0.044     0  04:15      1.89    0.01    0.08
  
  
  ***************************
  Flow Classification Summary
  ***************************
  
  -------------------------------------------------------------------------------------
                      Adjusted    ---------- Fraction of Time in Flow Class ---------- 
                       /Actual         Up    Down  Sub   Sup   Up    Down  Norm  Inlet 
  Conduit               Length    Dry  Dry   Dry   Crit  Crit  Crit  Crit  Ltd   Ctrl  
  -------------------------------------------------------------------------------------
  FID1123                 1.00   0.13  0.00  0.00  0.38  0.00  0.00  0.50  0.27  0.00
  FID1139                 1.00   0.14  0.00  0.00  0.18  0.03  0.00  0.65  0.15  0.00
  FID1148                 1.00   0.12  0.00  0.00  0.37  0.00  0.00  0.52  0.00  0.00
  FID1149                 1.00   0.12  0.00  0.00  0.72  0.03  0.00  0.13  0.59  0.00
  FID3364                 1.00   0.12  0.00  0.00  0.84  0.00  0.00  0.05  0.67  0.00
  FID3671                 1.00   0.15  0.00  0.00  0.00  0.00  0.00  0.85  0.00  0.00
  FID3672                 1.00   0.15  0.00  0.00  0.00  0.00  0.00  0.85  0.00  0.00
  FID3762                 1.00   0.02  0.13  0.00  0.80  0.05  0.00  0.00  0.68  0.00
  FID3765                 1.00   0.01  0.13  0.00  0.69  0.17  0.00  0.00  0.68  0.00
  FID4112                 1.00   0.14  0.00  0.00  0.00  0.00  0.00  0.86  0.00  0.00
  FID4186                 1.00   0.16  0.00  0.00  0.00  0.45  0.00  0.38  0.00  0.00
  FID4187                 1.00   0.19  0.00  0.00  0.00  0.00  0.00  0.81  0.00  0.00
  FID4201                 1.00   0.14  0.00  0.00  0.58  0.00  0.00  0.29  0.34  0.00
  FID4202                 1.00   0.14  0.00  0.00  0.00  0.00  0.00  0.86  0.00  0.00
  FID4203                 1.00   0.15  0.85  0.00  0.00  0.00  0.00  0.00  0.00  0.00
  FID4299                 1.00   0.16  0.00  0.00  0.00  0.00  0.00  0.84  0.00  0.00
  FID4372                 1.00   0.08  0.14  0.00  0.78  0.00  0.00  0.00  0.63  0.00
  FID4498                 1.00   0.12  0.00  0.00  0.82  0.00  0.00  0.06  0.54  0.00
  FID4806                 1.00   0.15  0.00  0.00  0.00  0.00  0.00  0.85  0.00  0.00
  FID4807                 1.00   0.20  0.00  0.00  0.00  0.00  0.00  0.80  0.00  0.00
  FID4882                 1.00   0.22  0.50  0.00  0.28  0.00  0.00  0.00  0.59  0.00
  FID4884                 1.00   0.12  0.00  0.00  0.23  0.05  0.00  0.60  0.19  0.00
  FID4914                 1.00   0.13  0.00  0.00  0.86  0.00  0.00  0.01  0.69  0.00
  FID4915                 1.00   0.15  0.00  0.00  0.81  0.00  0.00  0.04  0.50  0.00
  FID4916                 1.00   0.19  0.00  0.00  0.60  0.00  0.00  0.21  0.05  0.00
  FID4917                 1.00   0.21  0.00  0.00  0.62  0.00  0.00  0.16  0.51  0.00
  FID5307                 1.00   0.16  0.00  0.00  0.72  0.00  0.00  0.12  0.23  0.00
  FID5308                 1.00   0.16  0.00  0.00  0.00  0.00  0.00  0.84  0.00  0.00
  FID5312                 1.00   0.18  0.00  0.00  0.00  0.00  0.00  0.82  0.00  0.00
  FID5865                 1.00   0.12  0.00  0.00  0.40  0.03  0.00  0.44  0.32  0.00
  C9                      1.00   0.00  0.00  0.00  1.00  0.00  0.00  0.00  0.00  0.00
  C12                     1.00   0.00  0.00  0.00  1.00  0.00  0.00  0.00  0.00  0.00
  C13                     1.00   0.00  0.00  0.00  1.00  0.00  0.00  0.00  0.00  0.00
  C14                     1.00   0.00  0.00  0.00  1.00  0.00  0.00  0.00  0.00  0.00
  C52                     1.00   0.04  0.11  0.00  0.85  0.00  0.00  0.00  0.68  0.00
  C130                    1.00   0.14  0.00  0.00  0.55  0.00  0.00  0.31  0.00  0.00
  C131                    1.00   0.15  0.00  0.00  0.48  0.01  0.00  0.35  0.37  0.00
  C139                    1.00   0.12  0.54  0.00  0.32  0.00  0.02  0.00  0.49  0.00
  C191                    1.00   0.00  0.00  0.00  1.00  0.00  0.00  0.00  0.00  0.00
  C193                    1.00   0.00  0.00  0.00  1.00  0.00  0.00  0.00  0.00  0.00
  C194                    1.00   0.01  0.00  0.00  0.99  0.00  0.00  0.00  0.00  0.00
  C195                    1.00   0.01  0.00  0.00  0.99  0.00  0.00  0.00  0.00  0.00
  C196                    1.00   0.00  0.00  0.00  1.00  0.00  0.00  0.00  0.00  0.00
  C197                    1.00   0.01  0.00  0.00  0.99  0.00  0.00  0.00  0.00  0.00
  C198                    1.00   0.01  0.00  0.00  0.99  0.00  0.00  0.00  0.00  0.00
  C199                    1.00   0.01  0.00  0.00  0.99  0.00  0.00  0.00  0.00  0.00
  C200                    1.00   0.01  0.00  0.00  0.99  0.00  0.00  0.00  0.00  0.00
  C201                    1.00   0.01  0.00  0.00  0.99  0.00  0.00  0.00  0.00  0.00
  C202                    1.00   0.01  0.00  0.00  0.99  0.00  0.00  0.00  0.00  0.00
  C203                    1.00   0.02  0.00  0.00  0.98  0.00  0.00  0.00  0.00  0.00
  C204                    1.00   0.02  0.00  0.00  0.98  0.00  0.00  0.00  0.00  0.00
  C205                    1.00   0.02  0.00  0.00  0.98  0.00  0.00  0.00  0.00  0.00
  C206                    1.00   0.02  0.00  0.00  0.98  0.00  0.00  0.00  0.00  0.00
  C207                    1.00   0.02  0.00  0.00  0.98  0.00  0.00  0.00  0.00  0.00
  C208                    1.00   0.02  0.00  0.00  0.98  0.00  0.00  0.00  0.00  0.00
  C209                    1.00   0.02  0.00  0.00  0.98  0.00  0.00  0.00  0.00  0.00
  C210                    1.00   0.02  0.00  0.00  0.98  0.00  0.00  0.00  0.00  0.00
  C211                    1.00   0.03  0.00  0.00  0.97  0.00  0.00  0.00  0.00  0.00
  C212                    1.00   0.03  0.00  0.00  0.97  0.00  0.00  0.00  0.00  0.00
  C213                    1.00   0.03  0.00  0.00  0.97  0.00  0.00  0.00  0.00  0.00
  C214                    1.00   0.03  0.00  0.00  0.97  0.00  0.00  0.00  0.00  0.00
  C215                    1.00   0.03  0.00  0.00  0.97  0.00  0.00  0.00  0.58  0.00
  C216                    1.00   0.03  0.00  0.00  0.97  0.00  0.00  0.00  0.00  0.00
  C217                    1.00   0.03  0.00  0.00  0.97  0.00  0.00  0.00  0.00  0.00
  C218                    1.00   0.03  0.00  0.00  0.97  0.00  0.00  0.00  0.00  0.00
  C219                    1.00   0.04  0.00  0.00  0.96  0.00  0.00  0.00  0.00  0.00
  C220                    1.00   0.04  0.00  0.00  0.96  0.00  0.00  0.00  0.00  0.00
  C221                    1.00   0.04  0.00  0.00  0.96  0.00  0.00  0.00  0.00  0.00
  C222                    1.00   0.05  0.00  0.00  0.95  0.00  0.00  0.00  0.00  0.00
  C223                    1.00   0.05  0.00  0.00  0.95  0.00  0.00  0.00  0.01  0.00
  C224                    1.00   0.05  0.00  0.00  0.95  0.00  0.00  0.00  0.00  0.00
  C225                    1.00   0.05  0.00  0.00  0.95  0.00  0.00  0.00  0.00  0.00
  C226                    1.00   0.05  0.00  0.00  0.95  0.00  0.00  0.00  0.00  0.00
  C227                    1.00   0.05  0.00  0.00  0.95  0.00  0.00  0.00  0.00  0.00
  C228                    1.00   0.06  0.00  0.00  0.94  0.00  0.00  0.00  0.00  0.00
  C229                    1.00   0.06  0.00  0.00  0.94  0.00  0.00  0.00  0.00  0.00
  C230                    1.00   0.06  0.00  0.00  0.94  0.00  0.00  0.00  0.00  0.00
  C231                    1.00   0.07  0.00  0.00  0.93  0.00  0.00  0.00  0.00  0.00
  C232                    1.00   0.07  0.00  0.00  0.93  0.00  0.00  0.00  0.00  0.00
  C233                    1.00   0.07  0.00  0.00  0.93  0.00  0.00  0.00  0.00  0.00
  C234                    1.00   0.07  0.00  0.00  0.93  0.00  0.00  0.00  0.00  0.00
  C235                    1.00   0.07  0.00  0.00  0.93  0.00  0.00  0.00  0.00  0.00
  C236                    1.00   0.08  0.00  0.00  0.92  0.00  0.00  0.00  0.00  0.00
  C237                    1.00   0.08  0.00  0.00  0.92  0.00  0.00  0.00  0.00  0.00
  C238                    1.00   0.08  0.00  0.00  0.92  0.00  0.00  0.00  0.00  0.00
  C239                    1.00   0.08  0.00  0.00  0.92  0.00  0.00  0.00  0.00  0.00
  C240                    1.00   0.08  0.00  0.00  0.92  0.00  0.00  0.00  0.00  0.00
  C241                    1.00   0.08  0.00  0.00  0.92  0.00  0.00  0.00  0.00  0.00
  C242                    1.00   0.09  0.00  0.00  0.91  0.00  0.00  0.00  0.00  0.00
  C243                    1.00   0.09  0.00  0.00  0.91  0.00  0.00  0.00  0.04  0.00
  C244                    1.00   0.09  0.00  0.00  0.91  0.00  0.00  0.00  0.00  0.00
  C245                    1.00   0.09  0.00  0.00  0.91  0.00  0.00  0.00  0.00  0.00
  C246                    1.00   0.10  0.00  0.00  0.90  0.00  0.00  0.00  0.15  0.00
  C247                    1.00   0.11  0.00  0.00  0.89  0.00  0.00  0.00  0.00  0.00
  C248                    1.00   0.12  0.00  0.00  0.88  0.00  0.00  0.00  0.00  0.00
  C249                    1.00   0.11  0.03  0.00  0.86  0.00  0.00  0.00  0.01  0.00
  C250                    1.00   0.11  0.00  0.00  0.89  0.00  0.00  0.00  0.01  0.00
  C251                    1.00   0.11  0.00  0.00  0.89  0.00  0.00  0.00  0.02  0.00
  C252                    1.00   0.12  0.00  0.00  0.88  0.00  0.00  0.00  0.00  0.00
  C253                    1.00   0.12  0.00  0.00  0.88  0.00  0.00  0.00  0.00  0.00
  C254                    1.00   0.14  0.00  0.00  0.86  0.00  0.00  0.00  0.00  0.00
  C255                    1.00   0.12  0.04  0.00  0.84  0.00  0.00  0.00  0.01  0.00
  C256                    1.00   0.11  0.01  0.00  0.88  0.00  0.00  0.00  0.02  0.00
  C257                    1.00   0.11  0.00  0.00  0.88  0.01  0.00  0.00  0.00  0.00
  C258                    1.00   0.11  0.01  0.00  0.88  0.00  0.00  0.00  0.01  0.00
  C259                    1.00   0.11  0.00  0.00  0.89  0.00  0.00  0.00  0.05  0.00
  C260                    1.00   0.12  0.00  0.00  0.88  0.00  0.00  0.00  0.00  0.00
  C261                    1.00   0.12  0.00  0.00  0.88  0.00  0.00  0.00  0.02  0.00
  C262                    1.00   0.12  0.00  0.00  0.87  0.00  0.00  0.00  0.00  0.00
  C263                    1.00   0.13  0.00  0.00  0.87  0.00  0.00  0.00  0.01  0.00
  C264                    1.00   0.12  0.00  0.00  0.88  0.00  0.00  0.00  0.02  0.00
  C265                    1.00   0.12  0.03  0.00  0.85  0.00  0.00  0.00  0.00  0.00
  C266                    1.00   0.16  0.00  0.00  0.84  0.00  0.00  0.00  0.00  0.00
  C267                    1.00   0.12  0.09  0.00  0.79  0.00  0.00  0.00  0.00  0.00
  C268                    1.00   0.12  0.00  0.00  0.88  0.00  0.00  0.00  0.07  0.00
  C269                    1.00   0.13  0.00  0.00  0.87  0.00  0.00  0.00  0.00  0.00
  C270                    1.00   0.11  0.03  0.00  0.86  0.00  0.00  0.00  0.06  0.00
  C271                    1.00   0.11  0.00  0.00  0.89  0.00  0.00  0.00  0.01  0.00
  C272                    1.00   0.12  0.00  0.00  0.88  0.00  0.00  0.00  0.00  0.00
  C273                    1.00   0.12  0.00  0.00  0.88  0.00  0.00  0.00  0.03  0.00
  C274                    1.00   0.12  0.00  0.00  0.88  0.00  0.00  0.00  0.02  0.00
  C275                    1.00   0.14  0.00  0.00  0.86  0.00  0.00  0.00  0.01  0.00
  C276                    1.00   0.16  0.00  0.00  0.84  0.00  0.00  0.00  0.01  0.00
  C277                    1.00   0.18  0.00  0.00  0.82  0.00  0.00  0.00  0.00  0.00
  C278                    1.00   0.19  0.00  0.00  0.81  0.00  0.00  0.00  0.00  0.00
  C279                    1.00   0.14  0.06  0.00  0.80  0.00  0.00  0.00  0.01  0.00
  C280                    1.00   0.14  0.01  0.00  0.86  0.00  0.00  0.00  0.03  0.00
  C281                    1.00   0.14  0.00  0.00  0.86  0.00  0.00  0.00  0.04  0.00
  C282                    1.00   0.14  0.00  0.00  0.86  0.00  0.00  0.00  0.05  0.00
  C283                    1.00   0.15  0.00  0.00  0.85  0.00  0.00  0.00  0.03  0.00
  C284                    1.00   0.15  0.00  0.00  0.85  0.00  0.00  0.00  0.02  0.00
  C285                    1.00   0.16  0.00  0.00  0.84  0.00  0.00  0.00  0.00  0.00
  C286                    1.00   0.17  0.00  0.00  0.83  0.00  0.00  0.00  0.01  0.00
  C287                    1.00   0.13  0.05  0.00  0.81  0.00  0.00  0.00  0.00  0.00
  C288                    1.00   0.13  0.00  0.00  0.87  0.00  0.00  0.00  0.00  0.00
  C289                    1.00   0.21  0.00  0.00  0.79  0.00  0.00  0.00  0.00  0.00
  C290                    1.00   0.13  0.10  0.00  0.77  0.00  0.00  0.00  0.01  0.00
  C291                    1.00   0.13  0.00  0.00  0.87  0.00  0.00  0.00  0.06  0.00
  C292                    1.00   0.15  0.00  0.00  0.85  0.00  0.00  0.00  0.02  0.00
  C293                    1.00   0.15  0.00  0.00  0.85  0.00  0.00  0.00  0.01  0.00
  C294                    1.00   0.16  0.00  0.00  0.84  0.00  0.00  0.00  0.01  0.00
  C295                    1.00   0.17  0.00  0.00  0.83  0.00  0.00  0.00  0.01  0.00
  C296                    1.00   0.14  0.05  0.00  0.81  0.00  0.00  0.00  0.01  0.00
  C297                    1.00   0.14  0.00  0.00  0.86  0.00  0.00  0.00  0.01  0.00
  C298                    1.00   0.21  0.00  0.00  0.79  0.00  0.00  0.00  0.01  0.00
  C299                    1.00   0.22  0.00  0.00  0.78  0.00  0.00  0.00  0.01  0.00
  C300                    1.00   0.23  0.00  0.00  0.77  0.00  0.00  0.00  0.00  0.00
  C301                    1.00   0.24  0.00  0.00  0.76  0.00  0.00  0.00  0.00  0.00
  C302                    1.00   0.00  0.00  0.00  1.00  0.00  0.00  0.00  0.00  0.00
  C303                    1.00   0.00  0.00  0.00  1.00  0.00  0.00  0.00  0.00  0.00
  C353                    1.00   0.15  0.00  0.00  0.00  0.00  0.00  0.85  0.00  0.00
  
  
  *************************
  Conduit Surcharge Summary
  *************************
  
  ----------------------------------------------------------------------------
                                                           Hours        Hours 
                         --------- Hours Full --------   Above Full   Capacity
  Conduit                Both Ends  Upstream  Dnstream   Normal Flow   Limited
  ----------------------------------------------------------------------------
  FID4498                     0.01      0.01      1.96      0.01         0.01
  FID4882                     0.01      0.01      2.58      0.01         0.01
  FID4914                     0.01      0.01      2.97      0.01         0.01
  FID4917                     0.01      0.01      0.74      0.01         0.01
  C199                        0.01      0.01      0.01      8.52         0.01
  C200                        0.01      0.01      0.01      8.46         0.01
  C227                        0.01      0.01      0.01      0.55         0.01
  C262                        0.01      0.01      0.07      0.01         0.01
  
  
  ***************************
  Link Pollutant Load Summary
  ***************************
  
  --------------------------------------------------------------
                                 TSS            TP           TDP
  Link                            kg            kg            kg
  --------------------------------------------------------------
  FID1123                     42.355         0.041         0.008
  FID1139                    227.235         0.203         0.040
  FID1148                    383.015         0.299         0.085
  FID1149                    382.862         0.299         0.085
  FID3364                    435.331         0.325         0.097
  FID3671                     19.043         0.004         0.007
  FID3672                     87.153         0.054         0.027
  FID3762                    218.847         0.083         0.060
  FID3765                    372.067         0.182         0.112
  FID4112                    145.635         0.094         0.043
  FID4186                     30.139         0.007         0.008
  FID4187                     29.835         0.007         0.008
  FID4201                     88.519         0.052         0.026
  FID4202                     84.467         0.051         0.026
  FID4203                      0.000         0.000         0.000
  FID4299                     12.123         0.004         0.004
  FID4372                      0.000         0.000         0.000
  FID4498                     95.708         0.057         0.076
  FID4806                   1312.044         0.228         0.456
  FID4807                      0.000         0.001         0.001
  FID4882                      0.147         0.000         0.000
  FID4884                    171.951         0.163         0.025
  FID4914                     47.508         0.014         0.012
  FID4915                      3.401         0.004         0.002
  FID4916                      1.341         0.003         0.002
  FID4917                      0.241         0.002         0.002
  FID5307                     44.570         0.039         0.008
  FID5308                     11.258         0.004         0.004
  FID5312                     43.561         0.038         0.008
  FID5865                     42.407         0.018         0.091
  C9                         202.119         1.049         1.291
  C12                        200.647         1.031         1.268
  C13                        255.775         1.052         1.266
  C14                        168.181         0.693         0.837
  C52                        508.585         0.313         0.128
  C130                        73.339         0.077         0.009
  C131                        72.105         0.077         0.009
  C139                         0.226         0.001         0.000
  C191                       273.998         0.744         0.861
  C193                       273.764         0.724         0.833
  C194                       271.221         0.718         0.830
  C195                       270.761         0.716         0.828
  C196                       255.261         0.744         0.859
  C197                       642.840         0.895         0.936
  C198                       861.444         0.975         0.993
  C199                       862.598         0.972         0.988
  C200                       861.509         0.968         0.984
  C201                       864.109         0.964         0.977
  C202                       879.488         0.963         0.974
  C203                       880.235         0.959         0.970
  C204                       876.215         0.957         0.969
  C205                      1188.227         1.198         1.048
  C206                      1332.713         1.289         1.089
  C207                      1339.654         1.288         1.082
  C208                      1365.735         1.287         1.079
  C209                      1356.289         1.280         1.076
  C210                      1356.872         1.279         1.074
  C211                      1355.418         1.276         1.071
  C212                      1772.747         1.513         1.193
  C213                      1777.620         1.514         1.193
  C214                      1779.648         1.513         1.190
  C215                      1901.597         1.535         1.177
  C216                      1839.934         1.502         1.170
  C217                      1926.191         1.551         1.192
  C218                      2432.590         1.861         1.317
  C219                      2440.470         1.861         1.312
  C220                      2445.717         1.858         1.305
  C221                      2497.761         1.862         1.307
  C222                      2700.806         1.996         1.364
  C223                      3024.051         2.248         1.436
  C224                      3056.031         2.258         1.428
  C225                      3080.199         2.257         1.424
  C226                      3079.930         2.252         1.418
  C227                      3198.653         2.282         1.395
  C228                      3162.605         2.240         1.396
  C229                      3517.849         2.428         1.461
  C230                      3526.868         2.428         1.463
  C231                      3564.337         2.441         1.454
  C232                      3544.161         2.426         1.445
  C233                      3629.975         2.448         1.432
  C234                      3562.609         2.409         1.428
  C235                      3585.590         2.423         1.436
  C236                      3583.647         2.421         1.435
  C237                      3602.912         2.427         1.429
  C238                      3989.261         2.645         1.481
  C239                      3976.808         2.636         1.477
  C240                      3967.909         2.630         1.476
  C241                      3978.727         2.634         1.480
  C242                      4028.266         2.673         1.485
  C243                      4132.088         2.696         1.470
  C244                      4120.743         2.680         1.478
  C245                      4122.298         2.679         1.475
  C246                      5495.857         2.917         1.920
  C247                      5451.665         2.909         1.904
  C248                      5477.275         2.907         1.900
  C249                      5436.174         2.900         1.889
  C250                      5441.340         2.903         1.890
  C251                      5452.459         2.905         1.889
  C252                      5880.628         3.225         1.984
  C253                      5902.836         3.227         1.982
  C254                      5913.487         3.223         1.977
  C255                      5908.119         3.218         1.970
  C256                      5990.563         3.268         2.040
  C257                      5984.922         3.265         2.038
  C258                      5986.415         3.264         2.036
  C259                      6015.896         3.269         2.036
  C260                      5987.257         3.260         2.028
  C261                      6166.844         3.424         2.052
  C262                      6214.209         3.434         2.049
  C263                      6183.037         3.419         2.038
  C264                      6176.887         3.416         2.033
  C265                      6205.850         3.429         2.120
  C266                      6222.522         3.432         2.120
  C267                      6218.284         3.429         2.116
  C268                      6238.673         3.431         2.114
  C269                      6232.458         3.451         2.114
  C270                      6286.963         3.462         2.115
  C271                      6318.261         3.461         2.111
  C272                      6384.238         3.471         2.111
  C273                      6690.455         3.776         2.196
  C274                      6646.114         3.758         2.191
  C275                      6606.715         3.743         2.186
  C276                      6581.089         3.734         2.183
  C277                      6551.330         3.722         2.179
  C278                      6542.882         3.718         2.177
  C279                      6539.237         3.718         2.175
  C280                      6520.365         3.709         2.172
  C281                      6724.457         3.899         2.209
  C282                      6740.675         3.911         2.209
  C283                      6791.129         3.981         2.217
  C284                      6779.545         3.981         2.215
  C285                      6780.721         3.989         2.214
  C286                      6758.841         3.979         2.212
  C287                      6738.366         3.965         2.209
  C288                      6716.117         3.948         2.206
  C289                      6709.090         3.942         2.203
  C290                      6704.953         3.939         2.202
  C291                      6676.774         3.915         2.198
  C292                      6940.896         4.145         2.230
  C293                      6915.408         4.135         2.228
  C294                      6910.166         4.137         2.226
  C295                      6865.860         4.116         2.223
  C296                      6866.952         4.119         2.222
  C297                      6877.302         4.130         2.222
  C298                      6868.014         4.130         2.220
  C299                      6838.211         4.114         2.217
  C300                      6861.540         4.130         2.216
  C301                      6816.397         4.102         2.212
  C302                       201.522         1.043         1.285
  C303                       274.059         0.736         0.850
  C353                       228.224         0.205         0.031
  

  Analysis begun on:  Tue Oct 10 20:12:46 2017
  Analysis ended on:  Tue Oct 10 20:13:06 2017
  Total elapsed time: 00:00:20