
  EPA STORM WATER MANAGEMENT MODEL - VERSION 5.1 (Build 5.1.012)
  --------------------------------------------------------------

  WARNING 04: minimum elevation drop used for Conduit C199
  WARNING 04: minimum elevation drop used for Conduit C200
  WARNING 02: maximum depth increased for Node FID1955
  WARNING 02: maximum depth increased for Node FID1960
  WARNING 02: maximum depth increased for Node FID1965
  WARNING 02: maximum depth increased for Node FID1968
  WARNING 02: maximum depth increased for Node FID2244
  WARNING 02: maximum depth increased for Node FID2442
  WARNING 02: maximum depth increased for Node FID2446
  WARNING 02: maximum depth increased for Node FID5504
  WARNING 02: maximum depth increased for Node FID5527
  WARNING 02: maximum depth increased for Node AFID6926
  WARNING 02: maximum depth increased for Node AFID7376
  
  *********************************************************
  NOTE: The summary statistics displayed in this report are
  based on results found at every computational time step,  
  not just on results from each reporting time step.
  *********************************************************
  
  ****************
  Analysis Options
  ****************
  Flow Units ............... CMS
  Process Models:
    Rainfall/Runoff ........ YES
    RDII ................... NO
    Snowmelt ............... NO
    Groundwater ............ NO
    Flow Routing ........... YES
    Ponding Allowed ........ YES
    Water Quality .......... YES
  Infiltration Method ...... GREEN_AMPT
  Flow Routing Method ...... DYNWAVE
  Starting Date ............ 05/06/2016 15:00:00
  Ending Date .............. 05/07/2016 00:00:00
  Antecedent Dry Days ...... 0.0
  Report Time Step ......... 00:01:00
  Wet Time Step ............ 00:01:00
  Dry Time Step ............ 01:00:00
  Routing Time Step ........ 5.00 sec
  Variable Time Step ....... YES
  Maximum Trials ........... 8
  Number of Threads ........ 3
  Head Tolerance ........... 0.001500 m
  
  
  **************************        Volume         Depth
  Runoff Quantity Continuity     hectare-m            mm
  **************************     ---------       -------
  Total Precipitation ......         2.583         6.709
  Evaporation Loss .........         0.000         0.000
  Infiltration Loss ........         1.256         3.262
  Surface Runoff ...........         0.268         0.696
  Final Storage ............         1.059         2.751
  Continuity Error (%) .....        -0.010
  
  
  **************************           TSS            TP           TDP
  Runoff Quality Continuity             kg            kg            kg
  **************************    ----------    ----------    ----------
  Initial Buildup ..........         0.000         0.000         0.000
  Surface Buildup ..........     24751.107         6.284        16.250
  Wet Deposition ...........         0.000         0.000         0.000
  Sweeping Removal .........         0.000         0.000         0.000
  Infiltration Loss ........         0.000         0.000         0.000
  BMP Removal ..............         0.779         0.000         0.000
  Surface Runoff ...........      7791.782         1.835         3.508
  Remaining Buildup ........     16958.546         4.448        12.742
  Continuity Error (%) .....         0.000         0.000         0.000
  
  
  **************************        Volume        Volume
  Flow Routing Continuity        hectare-m      10^6 ltr
  **************************     ---------     ---------
  Dry Weather Inflow .......         0.000         0.000
  Wet Weather Inflow .......         0.268         2.680
  Groundwater Inflow .......         0.000         0.000
  RDII Inflow ..............         0.000         0.000
  External Inflow ..........         1.384        13.843
  External Outflow .........         1.229        12.293
  Flooding Loss ............         0.000         0.000
  Evaporation Loss .........         0.000         0.000
  Exfiltration Loss ........         0.000         0.000
  Initial Stored Volume ....         0.000         0.000
  Final Stored Volume ......         0.445         4.448
  Continuity Error (%) .....        -1.323
  
  
  **************************           TSS            TP           TDP
  Quality Routing Continuity            kg            kg            kg
  **************************    ----------    ----------    ----------
  Dry Weather Inflow .......         0.000         0.000         0.000
  Wet Weather Inflow .......      5506.516         1.766         3.417
  Groundwater Inflow .......         0.000         0.000         0.000
  RDII Inflow ..............         0.000         0.000         0.000
  External Inflow ..........       137.985         1.039         1.284
  External Outflow .........      5445.054         2.512         4.319
  Flooding Loss ............         0.000         0.000         0.000
  Exfiltration Loss ........         0.000         0.000         0.000
  Mass Reacted .............         0.000         0.000         0.000
  Initial Stored Mass ......         0.000         0.000         0.000
  Final Stored Mass ........        35.324         0.300         0.406
  Continuity Error (%) .....         2.908        -0.264        -0.496
  
  
  *************************
  Highest Continuity Errors
  *************************
  Node FID2824 (54.09%)
  Node FID2827 (35.93%)
  Node FID2241 (7.21%)
  Node FID2711 (4.67%)
  Node FID5785 (4.40%)
  
  
  ***************************
  Time-Step Critical Elements
  ***************************
  Link C241 (93.59%)
  Link C14 (5.71%)
  
  
  ********************************
  Highest Flow Instability Indexes
  ********************************
  All links are stable.
  
  
  *************************
  Routing Time Step Summary
  *************************
  Minimum Time Step           :     0.79 sec
  Average Time Step           :     1.06 sec
  Maximum Time Step           :     5.00 sec
  Percent in Steady State     :    29.16
  Average Iterations per Step :     2.00
  Percent Not Converging      :     0.00
  
  
  ***************************
  Subcatchment Runoff Summary
  ***************************
  
  --------------------------------------------------------------------------------------------------------
                            Total      Total      Total      Total      Total       Total     Peak  Runoff
                           Precip      Runon       Evap      Infil     Runoff      Runoff   Runoff   Coeff
  Subcatchment                 mm         mm         mm         mm         mm    10^6 ltr      CMS
  --------------------------------------------------------------------------------------------------------
  S0                         5.84       0.00       0.00       5.04       0.04        0.00     0.00   0.007
  S1                         5.84       0.00       0.00       2.55       0.16        0.02     0.00   0.027
  S2                         6.35       0.00       0.00       1.88       0.21        0.04     0.01   0.034
  S3                         5.84       0.00       0.00       3.80       0.10        0.00     0.00   0.017
  S4                         5.84       0.00       0.00       2.75       0.15        0.01     0.01   0.025
  S6                         6.35       0.00       0.00       0.96       0.26        0.00     0.00   0.041
  S7                         6.35       0.00       0.00       3.47       2.07        0.81     0.23   0.325
  S8                         6.35       0.00       0.00       0.96       0.26        0.00     0.00   0.041
  S9                         6.35       0.00       0.00       1.69       0.22        0.00     0.00   0.035
  S10                        6.35       0.00       0.00       1.81       0.22        0.00     0.00   0.034
  S11                        6.35       0.00       0.00       4.97       0.07        0.00     0.00   0.010
  S12                        6.35       0.00       0.00       2.04       0.21        0.00     0.00   0.033
  S13                        6.35       0.00       0.00       2.30       0.19        0.01     0.00   0.030
  S14                        6.35       0.00       0.00       4.42       0.09        0.00     0.00   0.015
  S16                        6.35       0.00       0.00       1.16       2.10        0.12     0.03   0.331
  S17                        6.35       0.00       0.00       1.98       0.21        0.04     0.01   0.033
  S18                        6.35       0.00       0.00       1.32       0.24        0.00     0.00   0.038
  S19                        6.35       0.00       0.00       3.42       0.14        0.00     0.00   0.022
  S20                        6.35       0.00       0.00       2.15       0.20        0.00     0.00   0.032
  S21                        6.35       0.00       0.00       3.11       2.09        1.12     0.30   0.328
  S22                        6.35       0.00       0.00       1.62       0.23        0.00     0.00   0.036
  S23                        6.35       0.00       0.00       3.79       0.12        0.00     0.00   0.019
  S24                        6.35       0.00       0.00       3.57       0.13        0.00     0.00   0.021
  S25                        6.35       0.00       0.00       2.36       0.19        0.00     0.00   0.030
  S27                        6.35       0.00       0.00       2.72       0.17        0.00     0.00   0.027
  S28                        5.84       0.00       0.00       5.83       0.00        0.00     0.00   0.000
  S29                        5.84       0.00       0.00       5.80       0.00        0.00     0.00   0.000
  S30                        6.35       0.00       0.00       6.33       0.00        0.00     0.00   0.000
  S31                        6.35       0.00       0.00       6.34       0.00        0.00     0.00   0.000
  S32                        6.35       0.00       0.00       4.65       0.08        0.00     0.00   0.013
  S33                        6.35       0.00       0.00       1.45       0.23        0.00     0.00   0.037
  S34                        6.35       0.00       0.00       3.69       0.56        0.20     0.12   0.089
  S35                        6.35       0.00       0.00       3.55       0.13        0.00     0.00   0.021
  S36                        6.35       0.00       0.00       5.03       0.06        0.00     0.00   0.010
  S37                        6.35       0.00       0.00       1.77       0.22        0.00     0.00   0.034
  S39                        6.35       0.00       0.00       3.70       0.13        0.02     0.01   0.020
  S40                        6.35       0.00       0.00       4.39       0.09        0.00     0.00   0.015
  S41                        6.35       0.00       0.00       2.12       0.20        0.03     0.01   0.032
  S42                        6.35       0.00       0.00       2.53       0.18        0.02     0.01   0.029
  S43                        6.35       0.00       0.00       4.71       0.08        0.00     0.00   0.012
  S44                        6.35       0.00       0.00       2.60       0.18        0.04     0.01   0.028
  S45                        8.13       0.00       0.00       4.46       0.18        0.00     0.00   0.022
  S47                        8.13       0.00       0.00       3.37       0.23        0.01     0.01   0.028
  S48                        8.13       0.00       0.00       4.03       0.20        0.00     0.00   0.025
  S49                        8.13       0.00       0.00       3.52       0.22        0.04     0.02   0.027
  S51                        8.13       0.00       0.00       6.95       0.06        0.00     0.00   0.007
  S52                        8.13       0.00       0.00       3.85       0.21        0.01     0.01   0.025
  S53                        8.13       0.00       0.00       3.70       0.21        0.03     0.02   0.026
  S54                        8.13       0.00       0.00       4.78       0.16        0.02     0.00   0.020
  S55                        8.13       0.00       0.00       3.86       0.20        0.03     0.01   0.025
  S56                        8.13       0.00       0.00       5.83       0.11        0.00     0.00   0.014
  S57                        8.13       0.00       0.00       3.32       0.23        0.00     0.00   0.028
  S58                        8.13       0.00       0.00       4.21       0.19        0.01     0.00   0.023
  S59                        8.13       0.00       0.00       6.97       0.06        0.00     0.00   0.007
  S60                        8.13       0.00       0.00       5.72       0.11        0.00     0.00   0.014
  S61                        8.13       0.00       0.00       7.13       0.05        0.00     0.00   0.006
  S62                        8.13       0.00       0.00       6.63       0.07        0.00     0.00   0.009
  S63                        6.35       0.00       0.00       5.32       0.05        0.00     0.00   0.008
  S64                        6.35       0.00       0.00       2.79       0.17        0.00     0.00   0.027
  S65                        6.35       0.00       0.00       4.18       0.10        0.02     0.01   0.016
  
  
  ****************************
  Subcatchment Washoff Summary
  ****************************
  
  --------------------------------------------------------------
                                 TSS            TP           TDP
  Subcatchment                    kg            kg            kg
  --------------------------------------------------------------
  S0                           0.000         0.000         0.000
  S1                         177.150         0.001         0.007
  S2                         268.489         0.012         0.023
  S3                          20.372         0.000         0.003
  S4                         218.249         0.003         0.018
  S6                          23.721         0.001         0.005
  S7                         688.653         0.566         0.672
  S8                           1.107         0.000         0.000
  S9                           0.979         0.000         0.000
  S10                          9.328         0.000         0.000
  S11                          0.006         0.000         0.000
  S12                          0.496         0.000         0.000
  S13                         83.098         0.001         0.010
  S14                          1.172         0.002         0.000
  S16                        179.406         0.039         0.054
  S17                        297.903         0.017         0.022
  S18                          1.210         0.000         0.000
  S19                         30.401         0.006         0.000
  S20                         12.254         0.001         0.000
  S21                       1349.357         0.715         1.900
  S22                          7.959         0.000         0.000
  S23                         13.024         0.007         0.000
  S24                         18.728         0.001         0.001
  S25                         17.189         0.005         0.000
  S27                         11.991         0.001         0.000
  S28                          0.000         0.000         0.000
  S29                          0.000         0.000         0.000
  S30                          0.000         0.000         0.000
  S31                          0.000         0.000         0.000
  S32                          7.009         0.001         0.000
  S33                         43.810         0.001         0.002
  S34                       1004.470         0.155         0.556
  S35                          4.330         0.001         0.000
  S36                         18.300         0.004         0.000
  S37                         16.402         0.001         0.000
  S39                        166.076         0.029         0.005
  S40                         22.903         0.009         0.000
  S41                        271.139         0.007         0.021
  S42                        210.944         0.010         0.009
  S43                         26.176         0.007         0.000
  S44                        411.222         0.028         0.017
  S45                          2.178         0.000         0.000
  S47                        156.268         0.011         0.024
  S48                         15.144         0.000         0.001
  S49                        530.294         0.037         0.046
  S51                         12.927         0.003         0.000
  S52                        239.558         0.014         0.030
  S53                        448.372         0.018         0.055
  S54                        110.082         0.025         0.003
  S55                        276.683         0.033         0.011
  S56                          0.041         0.000         0.000
  S57                         16.818         0.003         0.000
  S58                         65.702         0.003         0.003
  S59                         18.446         0.002         0.000
  S60                         18.707         0.011         0.000
  S61                          7.689         0.002         0.000
  S62                         25.741         0.009         0.000
  S63                         13.885         0.004         0.000
  S64                         11.869         0.006         0.000
  S65                        186.352         0.021         0.003
  --------------------------------------------------------------
  System                    7791.782         1.835         3.508
  
  
  ******************
  Node Depth Summary
  ******************
  
  ---------------------------------------------------------------------------------
                                 Average  Maximum  Maximum  Time of Max    Reported
                                   Depth    Depth      HGL   Occurrence   Max Depth
  Node                 Type       Meters   Meters   Meters  days hr:min      Meters
  ---------------------------------------------------------------------------------
  FID1936              JUNCTION     0.13     0.20  1376.50     0  04:05        0.20
  FID1955              JUNCTION     0.13     0.19  1376.11     0  04:15        0.19
  FID1960              JUNCTION     0.13     0.18  1376.04     0  04:15        0.18
  FID1965              JUNCTION     0.12     0.17  1376.47     0  04:15        0.17
  FID1968              JUNCTION     0.12     0.16  1376.56     0  04:14        0.16
  FID2239              JUNCTION     0.12     0.19  1374.70     0  03:30        0.19
  FID2241              JUNCTION     0.11     0.16  1373.29     0  03:30        0.16
  FID2242              JUNCTION     0.12     0.17  1374.21     0  03:30        0.17
  FID2244              JUNCTION     0.11     0.16  1374.52     0  03:30        0.16
  FID2440              JUNCTION     0.28     0.31  1374.55     0  04:11        0.31
  FID2442              JUNCTION     0.00     0.00  1375.27     0  00:00        0.00
  FID2446              JUNCTION     0.13     0.21  1376.01     0  04:05        0.21
  FID2447              JUNCTION     0.12     0.20  1375.90     0  04:05        0.20
  FID2455              JUNCTION     0.19     0.21  1374.20     0  04:20        0.21
  FID2711              JUNCTION     0.11     0.17  1370.35     0  04:05        0.17
  FID2719              JUNCTION     0.13     0.21  1370.31     0  04:05        0.21
  FID2720              JUNCTION     0.13     0.21  1370.41     0  04:05        0.21
  FID2824              JUNCTION     0.10     0.16  1371.44     0  04:23        0.16
  FID2827              JUNCTION     0.11     0.17  1371.47     0  04:10        0.17
  FID2828              JUNCTION     0.12     0.17  1371.49     0  03:55        0.17
  FID2832              JUNCTION     0.13     0.19  1370.79     0  04:10        0.19
  FID2833              JUNCTION     0.15     0.23  1370.85     0  04:10        0.23
  FID2839              JUNCTION     0.16     0.31  1371.51     0  04:10        0.31
  FID2873              JUNCTION     0.13     0.18  1370.88     0  04:10        0.18
  FID2964              JUNCTION     0.15     0.26  1371.04     0  04:10        0.26
  FID2965              JUNCTION     0.27     0.42  1370.68     0  04:34        0.42
  FID4584              JUNCTION     0.00     0.00  1371.34     0  00:00        0.00
  FID5068              JUNCTION     0.12     0.16  1375.54     0  03:30        0.16
  FID5072              JUNCTION     0.32     0.36  1373.65     0  04:20        0.36
  FID5140              JUNCTION     0.14     0.30  1373.52     0  04:20        0.30
  FID5435              JUNCTION     0.16     0.31  1373.06     0  04:20        0.31
  FID5437              JUNCTION     0.11     0.16  1373.11     0  04:05        0.16
  FID5503              JUNCTION     0.03     0.04  1371.37     0  08:44        0.04
  FID5504              JUNCTION     0.13     0.17  1371.53     0  04:10        0.17
  FID5527              JUNCTION     0.12     0.17  1372.67     0  03:30        0.17
  FID5568              JUNCTION     0.32     0.38  1372.77     0  04:21        0.38
  FID5784              JUNCTION     0.33     0.38  1372.38     0  04:31        0.38
  FID5785              JUNCTION     0.11     0.17  1374.60     0  03:32        0.17
  AFID6926             JUNCTION     0.12     0.17  1369.97     0  04:15        0.17
  AFID7360             JUNCTION     0.31     0.50  1370.63     0  04:31        0.50
  AFID7363             JUNCTION     0.29     0.47  1370.64     0  04:32        0.47
  AFID7376             JUNCTION     0.14     0.20  1371.43     0  04:10        0.20
  AFID7377             JUNCTION     0.28     0.40  1371.08     0  04:34        0.40
  AFID7705             JUNCTION     0.41     0.42  1375.39     0  04:15        0.42
  AFID7706             JUNCTION     0.46     0.48  1375.39     0  04:15        0.48
  AFID7792             JUNCTION     0.13     0.21  1375.01     0  03:30        0.21
  AFID8223             JUNCTION     0.33     0.38  1372.38     0  04:31        0.38
  J1                   JUNCTION     0.63     0.64  1375.63     0  04:18        0.64
  FID4901              JUNCTION     0.36     0.37  1375.44     0  04:17        0.37
  J9                   JUNCTION     0.52     0.52  1375.62     0  04:18        0.52
  J11                  JUNCTION     0.37     0.37  1375.58     0  04:18        0.37
  J12                  JUNCTION     0.36     0.37  1375.48     0  04:17        0.37
  J13                  JUNCTION     0.35     0.36  1375.44     0  04:17        0.36
  FID4902              JUNCTION     0.38     0.38  1375.43     0  04:16        0.38
  J14                  JUNCTION     0.29     0.30  1375.22     0  04:05        0.30
  J15                  JUNCTION     0.26     0.27  1374.94     0  04:05        0.27
  J16                  JUNCTION     0.27     0.29  1374.93     0  04:05        0.29
  FID2449              JUNCTION     0.29     0.31  1374.63     0  04:11        0.31
  J17                  JUNCTION     0.15     0.17  1374.14     0  04:20        0.17
  J19                  JUNCTION     0.26     0.30  1373.84     0  04:23        0.30
  FID5069              JUNCTION     0.35     0.39  1373.65     0  04:20        0.39
  FID5139              JUNCTION     0.33     0.40  1372.75     0  04:20        0.40
  J24                  JUNCTION     0.33     0.40  1372.76     0  04:21        0.40
  FID4984              JUNCTION     0.35     0.41  1372.37     0  04:32        0.41
  FID2669              JUNCTION     0.24     0.40  1368.84     0  04:35        0.40
  FID2712              JUNCTION     0.25     0.42  1369.61     0  04:33        0.42
  FID2718              JUNCTION     0.25     0.42  1369.66     0  04:33        0.42
  FID2838              JUNCTION     0.40     0.61  1370.55     0  04:21        0.61
  FID2825              JUNCTION     0.44     0.66  1370.57     0  04:22        0.66
  FID2823              JUNCTION     0.49     0.72  1370.59     0  04:25        0.72
  FID5505              JUNCTION     0.38     0.58  1370.61     0  04:31        0.58
  FID5436              JUNCTION     0.38     0.51  1371.83     0  04:22        0.51
  FID5438              JUNCTION     0.30     0.42  1371.84     0  04:23        0.42
  J49                  JUNCTION     0.39     0.40  1375.42     0  04:16        0.40
  J50                  JUNCTION     0.43     0.44  1375.41     0  04:16        0.44
  J51                  JUNCTION     0.49     0.50  1375.40     0  04:15        0.50
  J52                  JUNCTION     0.50     0.51  1375.39     0  04:15        0.51
  J53                  JUNCTION     0.29     0.30  1375.22     0  04:05        0.30
  J54                  JUNCTION     0.29     0.31  1375.26     0  04:06        0.31
  J55                  JUNCTION     0.34     0.35  1375.38     0  04:15        0.35
  J56                  JUNCTION     0.32     0.33  1375.36     0  04:15        0.33
  J57                  JUNCTION     0.30     0.31  1375.34     0  04:16        0.31
  J58                  JUNCTION     0.30     0.31  1375.28     0  04:07        0.31
  FID1935              JUNCTION     0.30     0.31  1375.20     0  04:05        0.31
  J59                  JUNCTION     0.30     0.31  1375.18     0  04:05        0.31
  J60                  JUNCTION     0.29     0.31  1375.13     0  04:06        0.31
  J61                  JUNCTION     0.27     0.29  1375.06     0  04:07        0.29
  J62                  JUNCTION     0.26     0.28  1375.03     0  04:07        0.28
  J63                  JUNCTION     0.27     0.28  1374.97     0  04:07        0.28
  J64                  JUNCTION     0.26     0.28  1374.89     0  04:06        0.28
  J65                  JUNCTION     0.21     0.23  1374.81     0  04:09        0.23
  J66                  JUNCTION     0.28     0.31  1374.52     0  04:12        0.31
  J67                  JUNCTION     0.28     0.31  1374.46     0  04:13        0.31
  J68                  JUNCTION     0.28     0.30  1374.37     0  04:13        0.30
  J69                  JUNCTION     0.37     0.40  1374.13     0  04:20        0.40
  J70                  JUNCTION     0.36     0.39  1374.04     0  04:21        0.39
  J71                  JUNCTION     0.34     0.37  1373.96     0  04:21        0.37
  J72                  JUNCTION     0.34     0.38  1373.72     0  04:23        0.38
  J73                  JUNCTION     0.35     0.39  1373.61     0  04:20        0.39
  J74                  JUNCTION     0.35     0.39  1373.37     0  04:21        0.39
  J75                  JUNCTION     0.36     0.40  1373.25     0  01:41        0.40
  J76                  JUNCTION     0.33     0.40  1372.74     0  04:21        0.40
  J77                  JUNCTION     0.33     0.40  1372.60     0  04:22        0.40
  J78                  JUNCTION     0.33     0.39  1372.46     0  04:23        0.39
  J79                  JUNCTION     0.33     0.38  1372.39     0  04:31        0.38
  J80                  JUNCTION     0.27     0.38  1371.86     0  04:30        0.38
  J81                  JUNCTION     0.38     0.51  1371.50     0  04:31        0.51
  J82                  JUNCTION     0.38     0.50  1371.43     0  04:32        0.50
  J83                  JUNCTION     0.28     0.41  1371.22     0  04:33        0.41
  J84                  JUNCTION     0.26     0.37  1371.01     0  04:34        0.37
  J85                  JUNCTION     0.26     0.37  1370.90     0  04:35        0.37
  J86                  JUNCTION     0.26     0.39  1370.76     0  04:35        0.39
  J87                  JUNCTION     0.28     0.46  1370.65     0  04:32        0.46
  J88                  JUNCTION     0.36     0.56  1370.61     0  04:31        0.56
  J89                  JUNCTION     0.40     0.61  1370.60     0  04:30        0.61
  J90                  JUNCTION     0.36     0.58  1370.53     0  04:22        0.58
  J91                  JUNCTION     0.36     0.58  1370.47     0  04:22        0.58
  J92                  JUNCTION     0.36     0.58  1370.41     0  04:23        0.58
  J93                  JUNCTION     0.36     0.58  1370.30     0  04:25        0.58
  J94                  JUNCTION     0.36     0.58  1370.23     0  04:30        0.58
  J95                  JUNCTION     0.36     0.58  1370.21     0  04:31        0.58
  J96                  JUNCTION     0.36     0.57  1370.13     0  04:31        0.57
  J97                  JUNCTION     0.35     0.57  1370.06     0  04:31        0.57
  J98                  JUNCTION     0.35     0.56  1370.00     0  04:32        0.56
  J99                  JUNCTION     0.34     0.55  1369.95     0  04:32        0.55
  J100                 JUNCTION     0.34     0.54  1369.90     0  04:32        0.54
  J101                 JUNCTION     0.33     0.51  1369.84     0  04:32        0.51
  J102                 JUNCTION     0.25     0.42  1369.69     0  04:33        0.42
  J103                 JUNCTION     0.25     0.42  1369.64     0  04:33        0.42
  J104                 JUNCTION     0.25     0.41  1369.57     0  04:33        0.41
  J105                 JUNCTION     0.25     0.41  1369.53     0  04:34        0.41
  J106                 JUNCTION     0.24     0.40  1369.47     0  04:34        0.40
  J107                 JUNCTION     0.24     0.40  1369.33     0  04:34        0.40
  J108                 JUNCTION     0.24     0.40  1369.19     0  04:34        0.40
  J109                 JUNCTION     0.24     0.40  1369.08     0  04:35        0.40
  J110                 JUNCTION     0.24     0.40  1368.98     0  04:35        0.40
  J111                 JUNCTION     0.24     0.40  1368.88     0  04:35        0.40
  J112                 JUNCTION     0.24     0.40  1368.72     0  04:36        0.40
  J113                 JUNCTION     0.24     0.40  1368.62     0  04:36        0.40
  J114                 JUNCTION     0.24     0.40  1368.51     0  04:36        0.40
  J115                 JUNCTION     0.24     0.40  1368.45     0  04:36        0.40
  J116                 JUNCTION     0.24     0.40  1368.38     0  04:37        0.40
  J117                 JUNCTION     0.24     0.40  1368.28     0  04:37        0.40
  J118                 JUNCTION     0.24     0.40  1368.17     0  04:37        0.40
  J119                 JUNCTION     0.24     0.40  1368.11     0  04:37        0.40
  J120                 JUNCTION     0.27     0.43  1368.03     0  04:37        0.43
  FID2451              JUNCTION     0.28     0.30  1374.58     0  04:11        0.30
  J121                 JUNCTION     0.26     0.39  1371.13     0  04:34        0.39
  J122                 JUNCTION     0.27     0.39  1371.11     0  04:34        0.39
  FID3706              JUNCTION     0.36     0.58  1370.32     0  04:25        0.58
  FID2831              JUNCTION     0.36     0.58  1370.20     0  04:31        0.58
  FID2689              OUTFALL      0.21     0.34  1367.84     0  04:37        0.34
  
  
  *******************
  Node Inflow Summary
  *******************
  
  -------------------------------------------------------------------------------------------------
                                  Maximum  Maximum                  Lateral       Total        Flow
                                  Lateral    Total  Time of Max      Inflow      Inflow     Balance
                                   Inflow   Inflow   Occurrence      Volume      Volume       Error
  Node                 Type           CMS      CMS  days hr:min    10^6 ltr    10^6 ltr     Percent
  -------------------------------------------------------------------------------------------------
  FID1936              JUNCTION     0.010    0.010     0  04:05      0.0139      0.0143       0.367
  FID1955              JUNCTION     0.008    0.008     0  04:15      0.0332      0.0332       0.479
  FID1960              JUNCTION     0.004    0.004     0  04:15      0.0151      0.0151       1.117
  FID1965              JUNCTION     0.002    0.002     0  04:15     0.00763     0.00763       2.299
  FID1968              JUNCTION     0.001    0.001     0  04:15     0.00229      0.0023      10.533
  FID2239              JUNCTION     0.001    0.001     0  03:30     0.00255     0.00254       7.580
  FID2241              JUNCTION     0.000    0.001     0  03:30           0     0.00222       7.767
  FID2242              JUNCTION     0.001    0.001     0  03:30      0.0024      0.0024       8.123
  FID2244              JUNCTION     0.000    0.000     0  03:30    0.000931     0.00092      23.994
  FID2440              JUNCTION     0.000    0.473     0  04:10           0        12.6       0.223
  FID2442              JUNCTION     0.000    0.000     0  00:00           0           0       0.000 ltr
  FID2446              JUNCTION     0.007    0.007     0  04:05     0.00981      0.0102       1.941
  FID2447              JUNCTION     0.000    0.007     0  04:05           0     0.00997       1.919
  FID2455              JUNCTION     0.007    0.476     0  04:13      0.0186        12.4       0.203
  FID2711              JUNCTION     0.000    0.002     0  04:05           0     0.00308       4.896
  FID2719              JUNCTION     0.009    0.009     0  04:05      0.0147      0.0149      -0.333
  FID2720              JUNCTION     0.002    0.002     0  04:05     0.00318      0.0032       3.801
  FID2824              JUNCTION     0.000    0.000     0  04:10    4.24e-05     0.00032     117.827
  FID2827              JUNCTION     0.000    0.000     0  04:03     4.8e-05    0.000433      56.078
  FID2828              JUNCTION     0.000    0.000     0  03:30    0.000567     0.00056      45.441
  FID2832              JUNCTION     0.000    0.009     0  04:10           0       0.037       0.279
  FID2833              JUNCTION     0.009    0.009     0  04:10      0.0368       0.037      -0.193
  FID2839              JUNCTION     0.227    0.227     0  04:10       0.808       0.809      -0.014
  FID2873              JUNCTION     0.001    0.001     0  04:10     0.00483     0.00485       2.170
  FID2964              JUNCTION     0.028    0.028     0  04:10       0.117       0.117      -0.199
  FID2965              JUNCTION     0.000    0.825     0  04:36           0        12.2       0.270
  FID4584              JUNCTION     0.000    0.000     0  00:00           0           0       0.000 ltr
  FID5068              JUNCTION     0.000    0.000     0  03:30     0.00114     0.00114      18.528
  FID5072              JUNCTION     0.007    0.484     0  04:20      0.0187        11.9       0.207
  FID5140              JUNCTION     0.115    0.115     0  04:20       0.199       0.198      -0.152
  FID5435              JUNCTION     0.303    0.303     0  04:20        1.12        1.12      -0.020
  FID5437              JUNCTION     0.000    0.000     0  03:30    0.000312     0.00031     126.255
  FID5503              JUNCTION     0.000    0.000     0  04:10    4.53e-05    4.47e-05      44.683 ltr
  FID5504              JUNCTION     0.004    0.004     0  04:10      0.0146      0.0147       1.060
  FID5527              JUNCTION     0.001    0.001     0  03:30     0.00302     0.00303       7.433
  FID5568              JUNCTION     0.000    0.488     0  04:20    0.000447        11.6       0.692
  FID5784              JUNCTION     0.000    0.581     0  04:22           0        11.6       0.116
  FID5785              JUNCTION     0.000    0.001     0  03:30           0     0.00236       4.600
  AFID6926             JUNCTION     0.004    0.004     0  04:15      0.0154      0.0155       0.981
  AFID7360             JUNCTION     0.000    0.827     0  04:36    2.74e-05        12.2       0.198
  AFID7363             JUNCTION     0.000    0.827     0  04:36           0        12.2       0.100
  AFID7376             JUNCTION     0.010    0.010     0  04:10        0.04      0.0402      -0.624
  AFID7377             JUNCTION     0.000    0.815     0  04:33           0        12.2       0.115
  AFID7705             JUNCTION     0.000    0.446     0  04:15           0        13.3       0.248
  AFID7706             JUNCTION     0.000    0.442     0  04:17           0        13.3       0.241
  AFID7792             JUNCTION     0.014    0.014     0  03:30      0.0404      0.0405       0.150
  AFID8223             JUNCTION     0.000    0.581     0  04:22           0        11.6       0.025
  J1                   JUNCTION     0.653    0.653     0  04:15          21          21       0.133
  FID4901              JUNCTION     0.000    0.435     0  04:20           0        13.6       0.199
  J9                   JUNCTION     0.000    0.653     0  04:15           0        20.9       0.260
  J11                  JUNCTION     0.000    0.653     0  04:15           0        20.9       0.428
  J12                  JUNCTION     0.000    0.653     0  04:25     0.00141        20.8       0.470
  J13                  JUNCTION    -0.220    0.654     0  04:32       -7.13        20.7      -0.178
  FID4902              JUNCTION     0.000    0.435     0  04:15           0        13.6       0.314
  J14                  JUNCTION     0.019    0.457     0  04:05      0.0297          13       0.175
  J15                  JUNCTION     0.025    0.474     0  04:05      0.0413        12.9       0.151
  J16                  JUNCTION     0.000    0.473     0  04:05    0.000576        12.8       0.152
  FID2449              JUNCTION     0.000    0.468     0  04:09    8.29e-05        12.7       1.221
  J17                  JUNCTION     0.010    0.482     0  04:20      0.0275        12.4       0.089
  J19                  JUNCTION     0.001    0.545     0  01:13     0.00239        12.2       1.220
  FID5069              JUNCTION     0.000    0.484     0  04:20           0        11.9       0.189
  FID5139              JUNCTION     0.000    0.587     0  04:20           0        11.8       0.052
  J24                  JUNCTION     0.001    0.498     0  04:30     0.00272        11.6       0.078
  FID4984              JUNCTION     0.000    0.580     0  04:22           0        11.6       0.959
  FID2669              JUNCTION     0.000    0.966     0  04:35           0        12.4       0.076
  FID2712              JUNCTION     0.000    0.965     0  04:33           0        12.5       0.093
  FID2718              JUNCTION     0.000    0.965     0  04:33           0        12.5       0.067
  FID2838              JUNCTION     0.000    0.972     0  04:20           0        12.8       0.197
  FID2825              JUNCTION     0.000    0.838     0  04:38           0          12       0.330
  FID2823              JUNCTION     0.000    0.835     0  04:37           0        12.1       0.525
  FID5505              JUNCTION     0.000    0.831     0  04:37           0        12.1       0.134
  FID5436              JUNCTION     0.000    0.834     0  04:20           0        12.5       0.679
  FID5438              JUNCTION     0.000    0.585     0  04:32           0        11.4       0.148
  J49                  JUNCTION     0.000    0.435     0  04:20           0        13.6       0.495
  J50                  JUNCTION     0.000    0.435     0  04:20    1.69e-05        13.5       0.884
  J51                  JUNCTION     0.000    0.436     0  04:32           0        13.4       0.729
  J52                  JUNCTION     0.000    0.437     0  04:33           0        13.3       0.218
  J53                  JUNCTION     0.000    0.446     0  04:15           0          13       0.177
  J54                  JUNCTION     0.000    0.446     0  04:15           0        13.1       0.264
  J55                  JUNCTION     0.000    0.446     0  04:15           0        13.2       0.263
  J56                  JUNCTION     0.000    0.446     0  04:15           0        13.2       0.278
  J57                  JUNCTION     0.000    0.446     0  04:15           0        13.2       0.341
  J58                  JUNCTION     0.000    0.446     0  04:16    0.000413        13.1       0.364
  FID1935              JUNCTION     0.000    0.466     0  04:05           0          13       0.227
  J59                  JUNCTION     0.000    0.464     0  04:05           0          13       0.307
  J60                  JUNCTION     0.000    0.462     0  04:05    0.000579          13       0.483
  J61                  JUNCTION     0.000    0.460     0  04:06           0        12.9       0.324
  J62                  JUNCTION     0.000    0.459     0  04:07           0        12.9       0.143
  J63                  JUNCTION     0.000    0.459     0  04:08           0        12.8       0.147
  J64                  JUNCTION     0.000    0.472     0  04:05           0        12.8       0.158
  J65                  JUNCTION     0.001    0.472     0  04:05     0.00185        12.8       0.901
  J66                  JUNCTION     0.000    0.473     0  04:11           0        12.5       0.284
  J67                  JUNCTION     0.000    0.473     0  04:11           0        12.5       0.428
  J68                  JUNCTION     0.001    0.473     0  04:12     0.00151        12.4       0.481
  J69                  JUNCTION     0.000    0.482     0  04:20           0        12.4       0.465
  J70                  JUNCTION     0.000    0.481     0  04:20    0.000762        12.3       0.599
  J71                  JUNCTION     0.000    0.481     0  04:21           0        12.3       0.435
  J72                  JUNCTION     0.001    0.481     0  04:22     0.00206        12.1       1.443
  J73                  JUNCTION     0.000    0.484     0  04:20           0        11.9       0.408
  J74                  JUNCTION     0.000    0.484     0  04:20           0        11.8       0.594
  J75                  JUNCTION     0.000    0.484     0  04:22    0.000792        11.8       0.938
  J76                  JUNCTION     0.000    0.586     0  04:20           0        11.7       0.203
  J77                  JUNCTION     0.006    0.587     0  04:20      0.0174        11.7       0.406
  J78                  JUNCTION     0.000    0.584     0  04:22           0        11.7       0.322
  J79                  JUNCTION     0.000    0.582     0  04:22           0        11.7       0.123
  J80                  JUNCTION     0.001    0.573     0  04:31     0.00201        11.5       0.674
  J81                  JUNCTION     0.000    0.822     0  04:23    0.000351        12.5       1.262
  J82                  JUNCTION     0.000    0.815     0  04:31           0        12.3       0.508
  J83                  JUNCTION     0.000    0.814     0  04:32           0        12.3       0.350
  J84                  JUNCTION     0.000    0.815     0  04:34           0        12.2       0.195
  J85                  JUNCTION     0.000    0.815     0  04:34           0        12.2       0.369
  J86                  JUNCTION     0.000    0.814     0  04:35           0        12.1       0.378
  J87                  JUNCTION     0.000    0.826     0  04:36    0.000542        12.2       0.149
  J88                  JUNCTION     0.000    0.829     0  04:37           0        12.1       0.238
  J89                  JUNCTION     0.000    0.832     0  04:37           0        12.1       0.370
  J90                  JUNCTION     0.000    0.969     0  04:20           0        12.7       0.101
  J91                  JUNCTION     0.000    0.967     0  04:20           0        12.7       0.162
  J92                  JUNCTION     0.000    0.964     0  04:20     2.1e-07        12.7       0.208
  J93                  JUNCTION     0.000    0.962     0  04:23           0        12.7       0.113
  J94                  JUNCTION     0.000    0.961     0  04:23    3.87e-07        12.6       0.133
  J95                  JUNCTION     0.000    0.961     0  04:25           0        12.6       0.051
  J96                  JUNCTION     0.000    0.965     0  04:25           0        12.6       0.194
  J97                  JUNCTION     0.000    0.965     0  04:31           0        12.6       0.168
  J98                  JUNCTION     0.000    0.964     0  04:31           0        12.6       0.149
  J99                  JUNCTION     0.000    0.964     0  04:32           0        12.6       0.129
  J100                 JUNCTION     0.000    0.964     0  04:32           0        12.6       0.111
  J101                 JUNCTION     0.000    0.964     0  04:32           0        12.5       0.129
  J102                 JUNCTION     0.000    0.963     0  04:32           0        12.5       0.096
  J103                 JUNCTION     0.000    0.965     0  04:33           0        12.5       0.074
  J104                 JUNCTION     0.000    0.965     0  04:33           0        12.5       0.099
  J105                 JUNCTION     0.000    0.965     0  04:33           0        12.5       0.124
  J106                 JUNCTION     0.000    0.965     0  04:34           0        12.5       0.139
  J107                 JUNCTION     0.000    0.965     0  04:34           0        12.5       0.140
  J108                 JUNCTION     0.000    0.965     0  04:34    1.39e-06        12.4       0.127
  J109                 JUNCTION     0.000    0.964     0  04:34           0        12.4       0.108
  J110                 JUNCTION     0.000    0.964     0  04:35           0        12.4       0.104
  J111                 JUNCTION     0.000    0.964     0  04:35    1.25e-05        12.4       0.077
  J112                 JUNCTION     0.000    0.966     0  04:35           0        12.4       0.110
  J113                 JUNCTION     0.000    0.966     0  04:36           0        12.4       0.106
  J114                 JUNCTION     0.000    0.966     0  04:36           0        12.4       0.091
  J115                 JUNCTION     0.000    0.966     0  04:36           0        12.4       0.067
  J116                 JUNCTION     0.000    0.966     0  04:36    3.77e-07        12.4       0.088
  J117                 JUNCTION     0.000    0.966     0  04:37           0        12.3       0.109
  J118                 JUNCTION     0.000    0.966     0  04:37           0        12.3       0.093
  J119                 JUNCTION     0.000    0.965     0  04:37           0        12.3       0.088
  J120                 JUNCTION     0.000    0.965     0  04:37           0        12.3       0.108
  FID2451              JUNCTION     0.000    0.467     0  04:10           0        12.5       0.217
  J121                 JUNCTION     0.000    0.812     0  04:33     0.00106        12.2       0.109
  J122                 JUNCTION     0.000    0.812     0  04:33    4.82e-05        12.2       0.100
  FID3706              JUNCTION     0.000    0.963     0  04:22           0        12.7       0.175
  FID2831              JUNCTION     0.000    0.966     0  04:23           0        12.7       0.114
  FID2689              OUTFALL      0.000    0.965     0  04:37           0        12.3       0.000
  
  
  **********************
  Node Surcharge Summary
  **********************
  
  No nodes were surcharged.
  
  
  *********************
  Node Flooding Summary
  *********************
  
  No nodes were flooded.
  
  
  ***********************
  Outfall Loading Summary
  ***********************
  
  -----------------------------------------------------------------------------------------------------
                         Flow       Avg       Max       Total         Total         Total         Total
                         Freq      Flow      Flow      Volume           TSS            TP           TDP
  Outfall Node           Pcnt       CMS       CMS    10^6 ltr            kg            kg            kg
  -----------------------------------------------------------------------------------------------------
  FID2689               80.15     0.555     0.965      12.293      5396.945         2.161         3.891
  -----------------------------------------------------------------------------------------------------
  System                80.15     0.555     0.965      12.293      5396.945         2.161         3.891
  
  
  ********************
  Link Flow Summary
  ********************
  
  -----------------------------------------------------------------------------
                                 Maximum  Time of Max   Maximum    Max/    Max/
                                  |Flow|   Occurrence   |Veloc|    Full    Full
  Link                 Type          CMS  days hr:min     m/sec    Flow   Depth
  -----------------------------------------------------------------------------
  FID1123              CONDUIT     0.001     0  04:10      0.41    0.01    0.08
  FID1139              CONDUIT     0.009     0  04:05      0.85    0.05    0.15
  FID1148              CONDUIT     0.009     0  04:10      0.44    0.02    0.07
  FID1149              CONDUIT     0.009     0  04:10      1.25    0.00    0.08
  FID3364              CONDUIT     0.010     0  04:10      0.25    0.01    0.16
  FID3671              CONDUIT     0.001     0  04:15      0.57    0.00    0.04
  FID3672              CONDUIT     0.002     0  04:15      0.82    0.01    0.07
  FID3762              CONDUIT     0.004     0  04:15      0.46    0.01    0.13
  FID3765              CONDUIT     0.008     0  04:15      0.71    0.02    0.16
  FID4112              CONDUIT     0.010     0  04:05      0.92    0.01    0.08
  FID4186              CONDUIT     0.001     0  03:30      0.55    0.00    0.04
  FID4187              CONDUIT     0.001     0  03:30      0.86    0.00    0.03
  FID4201              CONDUIT     0.007     0  04:05      0.63    0.05    0.15
  FID4202              CONDUIT     0.007     0  04:05      0.79    0.04    0.13
  FID4203              CONDUIT     0.000     0  00:00      0.00    0.00    0.07
  FID4299              CONDUIT     0.000     0  03:30      0.52    0.00    0.03
  FID4372              CONDUIT     0.115     0  04:20      1.00    0.04    0.19
  FID4498              CONDUIT     0.028     0  04:10      0.66    0.11    0.40
  FID4806              CONDUIT     0.303     0  04:20      4.18    0.06    0.17
  FID4807              CONDUIT     0.000     0  04:05      0.40    0.00    0.01
  FID4882              CONDUIT     0.000     0  00:00      0.00    0.00    0.29
  FID4884              CONDUIT     0.004     0  04:10      0.97    0.00    0.02
  FID4914              CONDUIT     0.001     0  03:30      0.02    0.00    0.47
  FID4915              CONDUIT     0.000     0  04:03      0.11    0.00    0.05
  FID4916              CONDUIT     0.000     0  04:10      0.12    0.00    0.03
  FID4917              CONDUIT     0.000     0  04:23      0.07    0.00    0.09
  FID5307              CONDUIT     0.001     0  03:30      0.25    0.01    0.07
  FID5308              CONDUIT     0.000     0  03:30      0.63    0.00    0.03
  FID5312              CONDUIT     0.001     0  03:32      0.33    0.00    0.04
  FID5865              CONDUIT     0.227     0  04:10      3.26    0.10    0.21
  C9                   CHANNEL     0.653     0  04:15      0.75    0.05    0.41
  C12                  CHANNEL     0.653     0  04:31      0.55    0.21    0.43
  C13                  CHANNEL     0.654     0  04:32      1.14    0.21    0.42
  C14                  CHANNEL     0.434     0  04:34      1.09    0.14    0.42
  C52                  CONDUIT     0.014     0  03:30      0.46    0.02    0.16
  C130                 CONDUIT     0.002     0  04:05      0.25    0.03    0.09
  C131                 CONDUIT     0.002     0  04:05      0.87    0.00    0.04
  C139                 CONDUIT     0.000     0  00:00      0.00    0.00    0.07
  C191                 CHANNEL     0.435     0  04:20      0.53    0.14    0.46
  C193                 CHANNEL     0.436     0  04:32      0.45    0.14    0.55
  C194                 CHANNEL     0.437     0  04:33      0.35    0.14    0.59
  C195                 CHANNEL     0.437     0  04:33      0.41    0.06    0.47
  C196                 CONDUIT     0.435     0  04:20      0.41    0.23    0.47
  C197                 CONDUIT     0.442     0  04:17      0.28    0.15    0.64
  C198                 CHANNEL     0.446     0  04:15      0.30    0.06    0.37
  C199                 CHANNEL     0.446     0  04:15      0.34    1.42    0.41
  C200                 CHANNEL     0.446     0  04:15      0.38    1.29    0.38
  C201                 CHANNEL     0.446     0  04:16      0.38    0.10    0.31
  C202                 CHANNEL     0.446     0  04:15      0.39    0.10    0.31
  C203                 CHANNEL     0.446     0  04:15      0.39    0.10    0.30
  C204                 CHANNEL     0.446     0  04:30      0.93    0.10    0.30
  C205                 CONDUIT     0.456     0  04:05      0.34    0.23    0.37
  C206                 CHANNEL     0.464     0  04:05      0.45    0.10    0.31
  C207                 CHANNEL     0.462     0  04:05      0.41    0.10    0.31
  C208                 CHANNEL     0.460     0  04:06      0.41    0.10    0.30
  C209                 CHANNEL     0.459     0  04:07      0.44    0.10    0.28
  C210                 CHANNEL     0.459     0  04:08      0.53    0.10    0.32
  C211                 CHANNEL     0.459     0  04:08      0.55    0.12    0.28
  C212                 CONDUIT     0.472     0  04:05      0.39    0.20    0.34
  C213                 CHANNEL     0.472     0  04:05      0.50    0.12    0.29
  C214                 CHANNEL     0.471     0  04:06      1.25    0.12    0.26
  C215                 CONDUIT     0.468     0  04:09      0.40    0.20    0.33
  C216                 CONDUIT     0.466     0  04:11      0.47    0.25    0.29
  C217                 CONDUIT     0.467     0  04:11      0.41    0.14    0.22
  C218                 CHANNEL     0.473     0  04:11      0.45    0.13    0.31
  C219                 CHANNEL     0.473     0  04:11      0.47    0.13    0.31
  C220                 CHANNEL     0.473     0  04:12      0.48    0.13    0.31
  C221                 CHANNEL     0.473     0  04:14      0.57    0.13    0.26
  C222                 CONDUIT     0.476     0  04:14      0.59    0.23    0.23
  C223                 CHANNEL     0.482     0  04:20      0.89    0.04    0.25
  C224                 CHANNEL     0.481     0  04:20      0.52    0.23    0.46
  C225                 CHANNEL     0.481     0  04:21      0.51    0.23    0.44
  C226                 CHANNEL     0.545     0  01:13      1.32    0.26    0.39
  C227                 CONDUIT     0.481     0  04:23      0.40    0.28    0.41
  C228                 CHANNEL     0.481     0  04:30      0.67    0.14    0.34
  C229                 CONDUIT     0.484     0  04:20      0.25    0.06    0.25
  C230                 CHANNEL     0.484     0  04:20      0.66    0.14    0.36
  C231                 CHANNEL     0.484     0  04:20      0.62    0.14    0.36
  C232                 CHANNEL     0.484     0  04:22      0.71    0.14    0.37
  C233                 CHANNEL     0.487     0  04:20      0.64    0.15    0.36
  C234                 CONDUIT     0.498     0  04:30      0.43    0.15    0.28
  C235                 CHANNEL     0.499     0  04:25      0.66    0.15    0.37
  C236                 CHANNEL     0.586     0  04:20      0.82    0.21    0.41
  C237                 CHANNEL     0.584     0  04:20      0.63    0.20    0.41
  C238                 CHANNEL     0.584     0  04:22      0.64    0.20    0.41
  C239                 CHANNEL     0.582     0  04:22      0.66    0.20    0.40
  C240                 CHANNEL     0.581     0  04:22      0.82    0.20    0.40
  C241                 CHANNEL     0.580     0  04:22      0.97    0.20    0.39
  C242                 CONDUIT     0.580     0  04:22      0.60    0.15    0.32
  C243                 CHANNEL     0.573     0  04:31      0.64    0.20    0.40
  C244                 CHANNEL     0.585     0  04:32      1.04    0.07    0.25
  C245                 CONDUIT     0.588     0  04:32      0.47    0.12    0.36
  C246                 CHANNEL     0.822     0  04:23      0.56    0.19    0.44
  C247                 CHANNEL     0.815     0  04:31      0.56    0.19    0.44
  C248                 CHANNEL     0.814     0  04:32      0.65    0.19    0.40
  C249                 CHANNEL     0.812     0  04:33      6.19    0.24    0.38
  C250                 CONDUIT     0.812     0  04:33      0.65    0.22    0.31
  C251                 CONDUIT     0.812     0  04:34      0.64    0.22    0.31
  C252                 CHANNEL     0.815     0  04:34      1.64    0.24    0.37
  C253                 CHANNEL     0.815     0  04:34      1.03    0.14    0.35
  C254                 CHANNEL     0.814     0  04:35      3.77    0.14    0.36
  C255                 CHANNEL     0.814     0  04:36      2.28    0.14    0.38
  C256                 CHANNEL     0.826     0  04:36      1.33    0.14    0.42
  C257                 CHANNEL     0.827     0  04:36      2.14    0.14    0.44
  C258                 CONDUIT     0.827     0  04:36      0.64    0.22    0.38
  C259                 CHANNEL     0.829     0  04:37      0.78    0.14    0.50
  C260                 CHANNEL     0.830     0  04:37      5.52    0.14    0.54
  C261                 CHANNEL     0.832     0  04:37      1.65    0.14    0.56
  C262                 CHANNEL     0.835     0  04:37      1.01    0.14    0.63
  C263                 CHANNEL     0.838     0  04:38      0.63    0.14    0.44
  C264                 CONDUIT     0.841     0  04:38      0.44    0.32    0.47
  C265                 CHANNEL     0.969     0  04:20      0.70    0.16    0.38
  C266                 CHANNEL     0.967     0  04:20      0.75    0.14    0.40
  C267                 CHANNEL     0.964     0  04:20      0.96    0.14    0.40
  C268                 CHANNEL     0.962     0  04:22      0.74    0.14    0.40
  C269                 CHANNEL     0.962     0  04:23      0.88    0.14    0.40
  C270                 CHANNEL     0.961     0  04:23      0.75    0.14    0.40
  C271                 CHANNEL     0.961     0  04:25      0.75    0.14    0.40
  C272                 CHANNEL     0.961     0  04:30      1.12    0.14    0.40
  C273                 CHANNEL     0.965     0  04:25      0.75    0.14    0.40
  C274                 CHANNEL     0.965     0  04:31      0.76    0.14    0.40
  C275                 CHANNEL     0.964     0  04:31      0.77    0.14    0.39
  C276                 CHANNEL     0.964     0  04:32      0.79    0.14    0.39
  C277                 CHANNEL     0.964     0  04:32      0.83    0.14    0.38
  C278                 CHANNEL     0.964     0  04:32      1.06    0.14    0.37
  C279                 CHANNEL     0.963     0  04:32      0.99    0.14    0.33
  C280                 CHANNEL     0.963     0  04:32      0.72    0.24    0.43
  C281                 CHANNEL     0.965     0  04:33      0.83    0.24    0.43
  C282                 CHANNEL     0.965     0  04:33      0.73    0.24    0.43
  C283                 CHANNEL     0.965     0  04:33      0.73    0.24    0.42
  C284                 CHANNEL     0.965     0  04:33      0.74    0.24    0.42
  C285                 CHANNEL     0.965     0  04:34      0.76    0.24    0.41
  C286                 CHANNEL     0.965     0  04:34      0.96    0.17    0.40
  C287                 CHANNEL     0.965     0  04:34      0.95    0.17    0.40
  C288                 CHANNEL     0.964     0  04:34      0.95    0.17    0.40
  C289                 CHANNEL     0.964     0  04:35      0.95    0.17    0.40
  C290                 CHANNEL     0.964     0  04:35      0.95    0.17    0.40
  C291                 CHANNEL     0.964     0  04:35      0.95    0.17    0.40
  C292                 CHANNEL     0.966     0  04:35      0.97    0.17    0.40
  C293                 CHANNEL     0.966     0  04:36      0.95    0.17    0.40
  C294                 CHANNEL     0.966     0  04:36      0.95    0.17    0.40
  C295                 CHANNEL     0.966     0  04:36      0.95    0.17    0.40
  C296                 CHANNEL     0.966     0  04:36      0.95    0.17    0.40
  C297                 CHANNEL     0.966     0  04:37      0.97    0.17    0.40
  C298                 CHANNEL     0.966     0  04:37      0.95    0.17    0.41
  C299                 CHANNEL     0.965     0  04:37      0.94    0.17    0.41
  C300                 CHANNEL     0.965     0  04:37      0.93    0.17    0.42
  C301                 CHANNEL     0.965     0  04:37      1.27    0.13    0.30
  C302                 CHANNEL     0.653     0  04:15      0.65    0.07    0.35
  C303                 CHANNEL     0.435     0  04:20      0.50    0.14    0.49
  C353                 CONDUIT     0.004     0  04:15      0.94    0.00    0.02
  
  
  ***************************
  Flow Classification Summary
  ***************************
  
  -------------------------------------------------------------------------------------
                      Adjusted    ---------- Fraction of Time in Flow Class ---------- 
                       /Actual         Up    Down  Sub   Sup   Up    Down  Norm  Inlet 
  Conduit               Length    Dry  Dry   Dry   Crit  Crit  Crit  Crit  Ltd   Ctrl  
  -------------------------------------------------------------------------------------
  FID1123                 1.00   0.22  0.00  0.00  0.00  0.00  0.00  0.78  0.00  0.00
  FID1139                 1.00   0.20  0.00  0.00  0.00  0.00  0.00  0.80  0.00  0.00
  FID1148                 1.00   0.18  0.00  0.00  0.62  0.00  0.00  0.20  0.00  0.00
  FID1149                 1.00   0.19  0.00  0.00  0.14  0.03  0.00  0.63  0.15  0.00
  FID3364                 1.00   0.12  0.06  0.00  0.82  0.00  0.00  0.00  0.70  0.00
  FID3671                 1.00   0.26  0.00  0.00  0.00  0.00  0.00  0.74  0.00  0.00
  FID3672                 1.00   0.23  0.00  0.00  0.00  0.00  0.00  0.77  0.00  0.00
  FID3762                 1.00   0.02  0.20  0.00  0.78  0.00  0.00  0.00  0.67  0.00
  FID3765                 1.00   0.01  0.20  0.00  0.70  0.09  0.00  0.00  0.68  0.00
  FID4112                 1.00   0.20  0.00  0.00  0.00  0.00  0.00  0.80  0.00  0.00
  FID4186                 1.00   0.27  0.00  0.00  0.46  0.11  0.00  0.16  0.35  0.00
  FID4187                 1.00   0.28  0.00  0.00  0.00  0.00  0.00  0.72  0.00  0.00
  FID4201                 1.00   0.20  0.00  0.00  0.67  0.00  0.00  0.12  0.53  0.00
  FID4202                 1.00   0.23  0.00  0.00  0.00  0.00  0.00  0.77  0.00  0.00
  FID4203                 1.00   0.21  0.79  0.00  0.00  0.00  0.00  0.00  0.00  0.00
  FID4299                 1.00   0.27  0.00  0.00  0.00  0.00  0.00  0.73  0.00  0.00
  FID4372                 1.00   0.06  0.15  0.00  0.79  0.00  0.00  0.00  0.68  0.00
  FID4498                 1.00   0.13  0.05  0.00  0.82  0.00  0.00  0.00  0.70  0.00
  FID4806                 1.00   0.21  0.00  0.00  0.00  0.00  0.00  0.79  0.00  0.00
  FID4807                 1.00   0.33  0.00  0.00  0.00  0.00  0.00  0.67  0.00  0.00
  FID4882                 1.00   0.80  0.20  0.00  0.00  0.00  0.00  0.00  0.00  0.00
  FID4884                 1.00   0.19  0.00  0.00  0.00  0.00  0.00  0.81  0.00  0.00
  FID4914                 1.00   0.10  0.16  0.00  0.74  0.00  0.00  0.00  0.64  0.00
  FID4915                 1.00   0.29  0.00  0.00  0.65  0.00  0.00  0.06  0.55  0.00
  FID4916                 1.00   0.35  0.00  0.00  0.60  0.00  0.00  0.05  0.28  0.00
  FID4917                 1.00   0.35  0.04  0.00  0.08  0.00  0.00  0.52  0.07  0.00
  FID5307                 1.00   0.26  0.00  0.00  0.71  0.00  0.00  0.03  0.49  0.00
  FID5308                 1.00   0.27  0.00  0.00  0.00  0.00  0.00  0.73  0.00  0.00
  FID5312                 1.00   0.28  0.00  0.00  0.00  0.00  0.00  0.72  0.00  0.00
  FID5865                 1.00   0.18  0.00  0.00  0.00  0.00  0.00  0.82  0.00  0.00
  C9                      1.00   0.00  0.00  0.00  1.00  0.00  0.00  0.00  0.00  0.00
  C12                     1.00   0.00  0.00  0.00  1.00  0.00  0.00  0.00  0.00  0.00
  C13                     1.00   0.00  0.00  0.00  1.00  0.00  0.00  0.00  0.00  0.00
  C14                     1.00   0.00  0.00  0.00  1.00  0.00  0.00  0.00  0.00  0.00
  C52                     1.00   0.03  0.18  0.00  0.79  0.00  0.00  0.00  0.68  0.00
  C130                    1.00   0.26  0.00  0.00  0.60  0.00  0.00  0.14  0.00  0.00
  C131                    1.00   0.29  0.00  0.00  0.00  0.06  0.00  0.65  0.04  0.00
  C139                    1.00   0.18  0.82  0.00  0.00  0.00  0.00  0.00  0.00  0.00
  C191                    1.00   0.00  0.00  0.00  1.00  0.00  0.00  0.00  0.00  0.00
  C193                    1.00   0.00  0.00  0.00  1.00  0.00  0.00  0.00  0.00  0.00
  C194                    1.00   0.00  0.00  0.00  1.00  0.00  0.00  0.00  0.00  0.00
  C195                    1.00   0.01  0.00  0.00  0.99  0.00  0.00  0.00  0.00  0.00
  C196                    1.00   0.00  0.00  0.00  1.00  0.00  0.00  0.00  0.00  0.00
  C197                    1.00   0.01  0.00  0.00  0.99  0.00  0.00  0.00  0.00  0.00
  C198                    1.00   0.01  0.00  0.00  0.99  0.00  0.00  0.00  0.00  0.00
  C199                    1.00   0.01  0.00  0.00  0.99  0.00  0.00  0.00  0.00  0.00
  C200                    1.00   0.01  0.00  0.00  0.99  0.00  0.00  0.00  0.00  0.00
  C201                    1.00   0.01  0.00  0.00  0.99  0.00  0.00  0.00  0.00  0.00
  C202                    1.00   0.01  0.00  0.00  0.99  0.00  0.00  0.00  0.00  0.00
  C203                    1.00   0.01  0.00  0.00  0.99  0.00  0.00  0.00  0.00  0.00
  C204                    1.00   0.01  0.00  0.00  0.99  0.00  0.00  0.00  0.00  0.00
  C205                    1.00   0.01  0.00  0.00  0.99  0.00  0.00  0.00  0.00  0.00
  C206                    1.00   0.01  0.00  0.00  0.99  0.00  0.00  0.00  0.00  0.00
  C207                    1.00   0.02  0.00  0.00  0.98  0.00  0.00  0.00  0.00  0.00
  C208                    1.00   0.02  0.00  0.00  0.98  0.00  0.00  0.00  0.00  0.00
  C209                    1.00   0.02  0.00  0.00  0.98  0.00  0.00  0.00  0.00  0.00
  C210                    1.00   0.02  0.00  0.00  0.98  0.00  0.00  0.00  0.00  0.00
  C211                    1.00   0.02  0.00  0.00  0.98  0.00  0.00  0.00  0.00  0.00
  C212                    1.00   0.02  0.00  0.00  0.98  0.00  0.00  0.00  0.00  0.00
  C213                    1.00   0.02  0.00  0.00  0.98  0.00  0.00  0.00  0.00  0.00
  C214                    1.00   0.02  0.00  0.00  0.98  0.00  0.00  0.00  0.00  0.00
  C215                    1.00   0.02  0.00  0.00  0.98  0.00  0.00  0.00  0.90  0.00
  C216                    1.00   0.02  0.00  0.00  0.98  0.00  0.00  0.00  0.00  0.00
  C217                    1.00   0.02  0.00  0.00  0.98  0.00  0.00  0.00  0.00  0.00
  C218                    1.00   0.02  0.00  0.00  0.98  0.00  0.00  0.00  0.00  0.00
  C219                    1.00   0.03  0.00  0.00  0.97  0.00  0.00  0.00  0.00  0.00
  C220                    1.00   0.03  0.00  0.00  0.97  0.00  0.00  0.00  0.00  0.00
  C221                    1.00   0.03  0.00  0.00  0.97  0.00  0.00  0.00  0.00  0.00
  C222                    1.00   0.03  0.00  0.00  0.97  0.00  0.00  0.00  0.00  0.00
  C223                    1.00   0.04  0.00  0.00  0.96  0.00  0.00  0.00  0.78  0.00
  C224                    1.00   0.04  0.00  0.00  0.96  0.00  0.00  0.00  0.00  0.00
  C225                    1.00   0.04  0.00  0.00  0.96  0.00  0.00  0.00  0.00  0.00
  C226                    1.00   0.04  0.00  0.00  0.96  0.00  0.00  0.00  0.00  0.00
  C227                    1.00   0.04  0.00  0.00  0.96  0.00  0.00  0.00  0.01  0.00
  C228                    1.00   0.04  0.00  0.00  0.96  0.00  0.00  0.00  0.00  0.00
  C229                    1.00   0.04  0.00  0.00  0.96  0.00  0.00  0.00  0.00  0.00
  C230                    1.00   0.05  0.00  0.00  0.95  0.00  0.00  0.00  0.00  0.00
  C231                    1.00   0.05  0.00  0.00  0.95  0.00  0.00  0.00  0.82  0.00
  C232                    1.00   0.05  0.00  0.00  0.95  0.00  0.00  0.00  0.00  0.00
  C233                    1.00   0.05  0.00  0.00  0.95  0.00  0.00  0.00  0.00  0.00
  C234                    1.00   0.05  0.00  0.00  0.95  0.00  0.00  0.00  0.00  0.00
  C235                    1.00   0.05  0.00  0.00  0.95  0.00  0.00  0.00  0.00  0.00
  C236                    1.00   0.06  0.00  0.00  0.94  0.00  0.00  0.00  0.00  0.00
  C237                    1.00   0.06  0.00  0.00  0.94  0.00  0.00  0.00  0.02  0.00
  C238                    1.00   0.06  0.00  0.00  0.94  0.00  0.00  0.00  0.01  0.00
  C239                    1.00   0.06  0.00  0.00  0.94  0.00  0.00  0.00  0.00  0.00
  C240                    1.00   0.06  0.00  0.00  0.94  0.00  0.00  0.00  0.00  0.00
  C241                    1.00   0.06  0.00  0.00  0.94  0.00  0.00  0.00  0.00  0.00
  C242                    1.00   0.06  0.00  0.00  0.94  0.00  0.00  0.00  0.00  0.00
  C243                    1.00   0.06  0.00  0.00  0.94  0.00  0.00  0.00  0.00  0.00
  C244                    1.00   0.06  0.00  0.00  0.93  0.01  0.00  0.00  0.00  0.00
  C245                    1.00   0.07  0.00  0.00  0.93  0.00  0.00  0.00  0.00  0.00
  C246                    1.00   0.07  0.00  0.00  0.93  0.00  0.00  0.00  0.65  0.00
  C247                    1.00   0.08  0.00  0.00  0.92  0.00  0.00  0.00  0.00  0.00
  C248                    1.00   0.09  0.00  0.00  0.91  0.00  0.00  0.00  0.00  0.00
  C249                    1.00   0.10  0.00  0.00  0.90  0.00  0.00  0.00  0.00  0.00
  C250                    1.00   0.10  0.00  0.00  0.90  0.00  0.00  0.00  0.00  0.00
  C251                    1.00   0.11  0.00  0.00  0.89  0.00  0.00  0.00  0.00  0.00
  C252                    1.00   0.11  0.00  0.00  0.89  0.00  0.00  0.00  0.00  0.00
  C253                    1.00   0.12  0.00  0.00  0.88  0.00  0.00  0.00  0.37  0.00
  C254                    1.00   0.12  0.00  0.00  0.88  0.00  0.00  0.00  0.56  0.00
  C255                    1.00   0.12  0.00  0.00  0.88  0.00  0.00  0.00  0.01  0.00
  C256                    1.00   0.13  0.00  0.00  0.87  0.00  0.00  0.00  0.00  0.00
  C257                    1.00   0.13  0.00  0.00  0.87  0.00  0.00  0.00  0.00  0.00
  C258                    1.00   0.13  0.00  0.00  0.87  0.00  0.00  0.00  0.00  0.00
  C259                    1.00   0.13  0.00  0.00  0.87  0.00  0.00  0.00  0.00  0.00
  C260                    1.00   0.14  0.00  0.00  0.86  0.00  0.00  0.00  0.00  0.00
  C261                    1.00   0.14  0.00  0.00  0.86  0.00  0.00  0.00  0.00  0.00
  C262                    1.00   0.14  0.00  0.00  0.86  0.00  0.00  0.00  0.00  0.00
  C263                    1.00   0.14  0.00  0.00  0.86  0.00  0.00  0.00  0.00  0.00
  C264                    1.00   0.14  0.00  0.00  0.85  0.00  0.00  0.00  0.00  0.00
  C265                    1.00   0.15  0.00  0.00  0.85  0.00  0.00  0.00  0.00  0.00
  C266                    1.00   0.15  0.00  0.00  0.85  0.00  0.00  0.00  0.00  0.00
  C267                    1.00   0.15  0.00  0.00  0.85  0.00  0.00  0.00  0.00  0.00
  C268                    1.00   0.15  0.00  0.00  0.85  0.00  0.00  0.00  0.00  0.00
  C269                    1.00   0.16  0.00  0.00  0.84  0.00  0.00  0.00  0.00  0.00
  C270                    1.00   0.16  0.00  0.00  0.84  0.00  0.00  0.00  0.00  0.00
  C271                    1.00   0.16  0.00  0.00  0.84  0.00  0.00  0.00  0.00  0.00
  C272                    1.00   0.16  0.00  0.00  0.84  0.00  0.00  0.00  0.00  0.00
  C273                    1.00   0.16  0.00  0.00  0.84  0.00  0.00  0.00  0.00  0.00
  C274                    1.00   0.16  0.00  0.00  0.84  0.00  0.00  0.00  0.00  0.00
  C275                    1.00   0.16  0.00  0.00  0.84  0.00  0.00  0.00  0.00  0.00
  C276                    1.00   0.17  0.00  0.00  0.83  0.00  0.00  0.00  0.00  0.00
  C277                    1.00   0.17  0.00  0.00  0.83  0.00  0.00  0.00  0.00  0.00
  C278                    1.00   0.17  0.00  0.00  0.83  0.00  0.00  0.00  0.00  0.00
  C279                    1.00   0.17  0.00  0.00  0.83  0.00  0.00  0.00  0.00  0.00
  C280                    1.00   0.17  0.00  0.00  0.83  0.00  0.00  0.00  0.00  0.00
  C281                    1.00   0.17  0.00  0.00  0.83  0.00  0.00  0.00  0.00  0.00
  C282                    1.00   0.18  0.00  0.00  0.82  0.00  0.00  0.00  0.00  0.00
  C283                    1.00   0.18  0.00  0.00  0.82  0.00  0.00  0.00  0.00  0.00
  C284                    1.00   0.18  0.00  0.00  0.82  0.00  0.00  0.00  0.00  0.00
  C285                    1.00   0.18  0.00  0.00  0.82  0.00  0.00  0.00  0.00  0.00
  C286                    1.00   0.18  0.00  0.00  0.82  0.00  0.00  0.00  0.49  0.00
  C287                    1.00   0.18  0.00  0.00  0.82  0.00  0.00  0.00  0.49  0.00
  C288                    1.00   0.18  0.00  0.00  0.82  0.00  0.00  0.00  0.46  0.00
  C289                    1.00   0.18  0.00  0.00  0.82  0.00  0.00  0.00  0.42  0.00
  C290                    1.00   0.19  0.00  0.00  0.81  0.00  0.00  0.00  0.43  0.00
  C291                    1.00   0.19  0.00  0.00  0.81  0.00  0.00  0.00  0.00  0.00
  C292                    1.00   0.19  0.00  0.00  0.81  0.00  0.00  0.00  0.48  0.00
  C293                    1.00   0.19  0.00  0.00  0.81  0.00  0.00  0.00  0.40  0.00
  C294                    1.00   0.19  0.00  0.00  0.81  0.00  0.00  0.00  0.46  0.00
  C295                    1.00   0.19  0.00  0.00  0.81  0.00  0.00  0.00  0.00  0.00
  C296                    1.00   0.19  0.00  0.00  0.81  0.00  0.00  0.00  0.00  0.00
  C297                    1.00   0.19  0.00  0.00  0.81  0.00  0.00  0.00  0.41  0.00
  C298                    1.00   0.19  0.00  0.00  0.81  0.00  0.00  0.00  0.42  0.00
  C299                    1.00   0.20  0.00  0.00  0.80  0.00  0.00  0.00  0.00  0.00
  C300                    1.00   0.20  0.00  0.00  0.80  0.00  0.00  0.00  0.00  0.00
  C301                    1.00   0.20  0.00  0.00  0.80  0.00  0.00  0.00  0.00  0.00
  C302                    1.00   0.00  0.00  0.00  1.00  0.00  0.00  0.00  0.00  0.00
  C303                    1.00   0.00  0.00  0.00  1.00  0.00  0.00  0.00  0.00  0.00
  C353                    1.00   0.22  0.00  0.00  0.00  0.00  0.00  0.78  0.00  0.00
  
  
  *************************
  Conduit Surcharge Summary
  *************************
  
  ----------------------------------------------------------------------------
                                                           Hours        Hours 
                         --------- Hours Full --------   Above Full   Capacity
  Conduit                Both Ends  Upstream  Dnstream   Normal Flow   Limited
  ----------------------------------------------------------------------------
  C199                        0.01      0.01      0.01      8.49         0.01
  C200                        0.01      0.01      0.01      8.40         0.01
  
  
  ***************************
  Link Pollutant Load Summary
  ***************************
  
  --------------------------------------------------------------
                                 TSS            TP           TDP
  Link                            kg            kg            kg
  --------------------------------------------------------------
  FID1123                      2.440         0.001         0.005
  FID1139                    109.591         0.003         0.017
  FID1148                    101.987         0.009         0.023
  FID1149                     99.945         0.009         0.023
  FID3364                     97.027         0.013         0.023
  FID3671                      0.024         0.002         0.000
  FID3672                     25.709         0.002         0.003
  FID3762                     21.332         0.016         0.003
  FID3765                     85.524         0.024         0.011
  FID4112                    177.038         0.012         0.030
  FID4186                      1.681         0.004         0.000
  FID4187                      1.399         0.003         0.000
  FID4201                    131.874         0.009         0.024
  FID4202                    129.336         0.009         0.024
  FID4203                      0.000         0.000         0.000
  FID4299                      7.002         0.001         0.000
  FID4372                   1008.477         0.149         0.558
  FID4498                    178.781         0.039         0.054
  FID4806                   1343.180         0.715         1.901
  FID4807                      0.430         0.000         0.000
  FID4882                      0.000         0.000         0.000
  FID4884                      9.913         0.001         0.010
  FID4914                      3.222         0.004         0.000
  FID4915                      4.942         0.000         0.000
  FID4916                      2.611         0.000         0.000
  FID4917                      1.276         0.000         0.000
  FID5307                      4.122         0.000         0.001
  FID5308                      6.824         0.001         0.000
  FID5312                      3.559         0.000         0.001
  FID5865                    572.358         0.567         0.582
  C9                         137.956         1.044         1.280
  C12                        136.639         1.031         1.264
  C13                        140.312         1.027         1.259
  C14                         92.250         0.676         0.831
  C52                        140.102         0.024         0.017
  C130                        12.663         0.000         0.003
  C131                        12.460         0.000         0.003
  C139                         0.000         0.000         0.000
  C191                       117.371         0.674         0.826
  C193                       115.742         0.659         0.806
  C194                       115.062         0.654         0.803
  C195                       114.832         0.652         0.801
  C196                       117.702         0.676         0.830
  C197                       200.074         0.673         0.808
  C198                       221.147         0.687         0.809
  C199                       220.865         0.685         0.805
  C200                       220.574         0.682         0.802
  C201                       220.206         0.678         0.797
  C202                       223.574         0.678         0.794
  C203                       223.309         0.675         0.791
  C204                       223.156         0.674         0.790
  C205                       594.905         0.688         0.842
  C206                       771.690         0.698         0.870
  C207                       772.420         0.695         0.865
  C208                       775.324         0.692         0.860
  C209                       774.923         0.690         0.858
  C210                       774.720         0.689         0.856
  C211                       774.572         0.688         0.855
  C212                      1149.564         0.717         0.899
  C213                      1164.327         0.716         0.899
  C214                      1164.430         0.714         0.897
  C215                      1172.672         0.706         0.875
  C216                      1171.164         0.701         0.873
  C217                      1300.406         0.708         0.894
  C218                      1440.194         0.730         0.909
  C219                      1440.356         0.727         0.905
  C220                      1440.167         0.723         0.899
  C221                      1447.072         0.726         0.895
  C222                      1551.781         0.733         0.903
  C223                      1762.304         0.738         0.922
  C224                      1763.659         0.733         0.915
  C225                      1765.714         0.732         0.910
  C226                      1765.901         0.728         0.906
  C227                      1776.935         0.719         0.880
  C228                      1773.495         0.721         0.878
  C229                      1821.896         0.744         0.880
  C230                      1828.591         0.744         0.879
  C231                      1829.489         0.739         0.871
  C232                      1828.429         0.735         0.867
  C233                      1841.942         0.730         0.851
  C234                      1846.305         0.728         0.851
  C235                      1890.459         0.729         0.853
  C236                      2898.710         0.878         1.410
  C237                      2905.762         0.876         1.409
  C238                      2943.768         0.893         1.409
  C239                      2941.318         0.891         1.406
  C240                      2939.154         0.890         1.405
  C241                      2945.846         0.891         1.405
  C242                      2950.626         0.890         1.404
  C243                      2960.083         0.883         1.387
  C244                      2959.190         0.888         1.390
  C245                      2960.553         0.886         1.388
  C246                      4332.210         1.608         3.311
  C247                      4320.280         1.595         3.280
  C248                      4322.482         1.594         3.280
  C249                      4313.433         1.588         3.268
  C250                      4323.835         1.587         3.266
  C251                      4324.716         1.586         3.264
  C252                      4420.655         1.598         3.286
  C253                      4422.724         1.597         3.286
  C254                      4422.073         1.595         3.283
  C255                      4419.776         1.591         3.277
  C256                      4596.605         1.628         3.327
  C257                      4594.407         1.627         3.323
  C258                      4594.598         1.626         3.322
  C259                      4598.576         1.625         3.321
  C260                      4594.443         1.623         3.317
  C261                      4605.139         1.623         3.326
  C262                      4610.109         1.620         3.321
  C263                      4606.314         1.617         3.316
  C264                      4607.943         1.615         3.314
  C265                      5177.903         2.179         3.894
  C266                      5180.791         2.180         3.894
  C267                      5180.624         2.179         3.894
  C268                      5182.831         2.179         3.892
  C269                      5181.348         2.176         3.896
  C270                      5183.604         2.177         3.894
  C271                      5181.521         2.175         3.893
  C272                      5181.140         2.174         3.893
  C273                      5283.717         2.184         3.914
  C274                      5283.038         2.182         3.911
  C275                      5282.343         2.181         3.909
  C276                      5281.899         2.179         3.907
  C277                      5281.151         2.178         3.906
  C278                      5280.832         2.177         3.904
  C279                      5280.914         2.176         3.902
  C280                      5280.004         2.175         3.901
  C281                      5389.162         2.177         3.917
  C282                      5389.457         2.177         3.916
  C283                      5401.602         2.176         3.917
  C284                      5401.457         2.176         3.915
  C285                      5401.326         2.175         3.913
  C286                      5401.024         2.174         3.910
  C287                      5400.322         2.172         3.908
  C288                      5399.322         2.171         3.906
  C289                      5398.609         2.170         3.904
  C290                      5398.039         2.169         3.902
  C291                      5396.863         2.168         3.901
  C292                      5403.440         2.169         3.906
  C293                      5402.542         2.167         3.904
  C294                      5402.000         2.167         3.902
  C295                      5400.823         2.165         3.901
  C296                      5400.488         2.165         3.900
  C297                      5400.205         2.164         3.898
  C298                      5399.451         2.163         3.896
  C299                      5398.369         2.162         3.894
  C300                      5397.981         2.162         3.892
  C301                      5396.945         2.161         3.891
  C302                       137.487         1.040         1.275
  C303                       116.764         0.668         0.818
  C353                         6.185         0.001         0.007
  

  Analysis begun on:  Wed Oct 11 10:39:42 2017
  Analysis ended on:  Wed Oct 11 10:39:50 2017
  Total elapsed time: 00:00:08