
  EPA STORM WATER MANAGEMENT MODEL - VERSION 5.1 (Build 5.1.010)
  --------------------------------------------------------------

  WARNING 04: minimum elevation drop used for Conduit C199
  WARNING 04: minimum elevation drop used for Conduit C200
  WARNING 02: maximum depth increased for Node FID1955
  WARNING 02: maximum depth increased for Node FID1960
  WARNING 02: maximum depth increased for Node FID1965
  WARNING 02: maximum depth increased for Node FID1968
  WARNING 02: maximum depth increased for Node FID2244
  WARNING 02: maximum depth increased for Node FID2442
  WARNING 02: maximum depth increased for Node FID2446
  WARNING 02: maximum depth increased for Node FID5504
  WARNING 02: maximum depth increased for Node FID5527
  WARNING 02: maximum depth increased for Node AFID6926
  WARNING 02: maximum depth increased for Node AFID7376
  
  *********************************************************
  NOTE: The summary statistics displayed in this report are
  based on results found at every computational time step,  
  not just on results from each reporting time step.
  *********************************************************
  
  ****************
  Analysis Options
  ****************
  Flow Units ............... CMS
  Process Models:
    Rainfall/Runoff ........ YES
    RDII ................... NO
    Snowmelt ............... NO
    Groundwater ............ NO
    Flow Routing ........... YES
    Ponding Allowed ........ YES
    Water Quality .......... YES
  Infiltration Method ...... GREEN_AMPT
  Flow Routing Method ...... DYNWAVE
  Starting Date ............ MAY-06-2016 15:00:00
  Ending Date .............. MAY-07-2016 00:00:00
  Antecedent Dry Days ...... 0.0
  Report Time Step ......... 00:01:00
  Wet Time Step ............ 00:01:00
  Dry Time Step ............ 01:00:00
  Routing Time Step ........ 5.00 sec
  Variable Time Step ....... YES
  Maximum Trials ........... 8
  Number of Threads ........ 3
  Head Tolerance ........... 0.001500 m
  
  
  **************************        Volume         Depth
  Runoff Quantity Continuity     hectare-m            mm
  **************************     ---------       -------
  Total Precipitation ......         2.583         6.709
  Evaporation Loss .........         0.000         0.000
  Infiltration Loss ........         1.399         3.633
  Surface Runoff ...........         0.462         1.201
  Final Storage ............         0.723         1.877
  Continuity Error (%) .....        -0.021
  
  
  **************************           TSS            TP           TDP
  Runoff Quality Continuity             kg            kg            kg
  **************************    ----------    ----------    ----------
  Initial Buildup ..........         0.000         0.000         0.000
  Surface Buildup ..........     12290.133         9.364        11.807
  Wet Deposition ...........         0.000         0.000         0.000
  Sweeping Removal .........         0.000         0.000         0.000
  Infiltration Loss ........         0.000         0.000         0.000
  BMP Removal ..............         0.640         0.000         0.001
  Surface Runoff ...........      6394.575         4.707         5.371
  Remaining Buildup ........      5894.919         4.657         6.436
  Continuity Error (%) .....         0.000         0.000         0.000
  
  
  **************************        Volume        Volume
  Flow Routing Continuity        hectare-m      10^6 ltr
  **************************     ---------     ---------
  Dry Weather Inflow .......         0.000         0.000
  Wet Weather Inflow .......         0.462         4.624
  Groundwater Inflow .......         0.000         0.000
  RDII Inflow ..............         0.000         0.000
  External Inflow ..........         1.384        13.843
  External Outflow .........         1.260        12.598
  Flooding Loss ............         0.000         0.000
  Evaporation Loss .........         0.000         0.000
  Exfiltration Loss ........         0.000         0.000
  Initial Stored Volume ....         0.000         0.000
  Final Stored Volume ......         0.593         5.930
  Continuity Error (%) .....        -0.334
  
  
  **************************           TSS            TP           TDP
  Quality Routing Continuity            kg            kg            kg
  **************************    ----------    ----------    ----------
  Dry Weather Inflow .......         0.000         0.000         0.000
  Wet Weather Inflow .......      6394.229         4.679         5.330
  Groundwater Inflow .......         0.000         0.000         0.000
  RDII Inflow ..............         0.000         0.000         0.000
  External Inflow ..........       137.985         1.039         1.284
  External Outflow .........      6488.190         5.352         6.084
  Flooding Loss ............         0.000         0.000         0.000
  Exfiltration Loss ........         0.000         0.000         0.000
  Mass Reacted .............         0.000         0.000         0.000
  Initial Stored Mass ......         0.000         0.000         0.000
  Final Stored Mass ........        44.039         0.384         0.555
  Continuity Error (%) .....        -0.000        -0.309        -0.396
  
  
  *************************
  Highest Continuity Errors
  *************************
  Node FID2827 (4.93%)
  Node FID2824 (4.51%)
  Node J72 (1.78%)
  Node J19 (1.62%)
  Node J81 (1.62%)
  
  
  ***************************
  Time-Step Critical Elements
  ***************************
  Link C241 (91.47%)
  Link C14 (7.62%)
  
  
  ********************************
  Highest Flow Instability Indexes
  ********************************
  All links are stable.
  
  
  *************************
  Routing Time Step Summary
  *************************
  Minimum Time Step           :     0.70 sec
  Average Time Step           :     0.97 sec
  Maximum Time Step           :     5.00 sec
  Percent in Steady State     :     0.00
  Average Iterations per Step :     2.00
  Percent Not Converging      :     0.00
  
  
  ***************************
  Subcatchment Runoff Summary
  ***************************
  
  --------------------------------------------------------------------------------------------------------
                            Total      Total      Total      Total      Total       Total     Peak  Runoff
                           Precip      Runon       Evap      Infil     Runoff      Runoff   Runoff   Coeff
  Subcatchment                 mm         mm         mm         mm         mm    10^6 ltr      CMS
  --------------------------------------------------------------------------------------------------------
  S0                         5.84       0.00       0.00       5.15       0.21        0.00     0.00   0.036
  S1                         5.84       0.00       0.00       3.00       0.84        0.08     0.02   0.144
  S2                         6.35       0.00       0.00       2.59       1.25        0.22     0.07   0.197
  S3                         5.84       0.00       0.00       4.08       0.53        0.02     0.01   0.091
  S4                         5.84       0.00       0.00       3.18       0.80        0.08     0.03   0.137
  S6                         6.35       0.00       0.00       1.16       2.17        0.04     0.02   0.342
  S7                         6.35       0.00       0.00       2.28       1.12        0.44     0.10   0.176
  S8                         6.35       0.00       0.00       1.00       2.37        0.00     0.00   0.373
  S9                         6.35       0.00       0.00       2.45       1.32        0.00     0.00   0.208
  S10                        6.35       0.00       0.00       2.55       1.29        0.00     0.00   0.203
  S11                        6.35       0.00       0.00       5.20       0.39        0.00     0.00   0.062
  S12                        6.35       0.00       0.00       2.75       1.22        0.00     0.00   0.192
  S13                        6.35       0.00       0.00       2.94       1.13        0.09     0.03   0.178
  S14                        6.35       0.00       0.00       4.74       0.55        0.00     0.00   0.086
  S16                        6.35       0.00       0.00       2.11       2.30        0.13     0.04   0.363
  S17                        6.35       0.00       0.00       2.68       1.21        0.23     0.07   0.191
  S18                        6.35       0.00       0.00       2.15       1.43        0.00     0.00   0.224
  S19                        6.35       0.00       0.00       3.90       0.82        0.02     0.01   0.130
  S20                        6.35       0.00       0.00       2.84       1.19        0.01     0.00   0.187
  S21                        6.35       0.00       0.00       3.59       1.64        0.88     0.24   0.258
  S22                        6.35       0.00       0.00       2.40       1.34        0.00     0.00   0.210
  S23                        6.35       0.00       0.00       4.21       0.72        0.01     0.01   0.114
  S24                        6.35       0.00       0.00       4.02       0.78        0.02     0.01   0.123
  S25                        6.35       0.00       0.00       3.01       1.12        0.01     0.00   0.176
  S27                        6.35       0.00       0.00       3.32       1.03        0.01     0.00   0.162
  S28                        5.84       0.00       0.00       5.83       0.00        0.00     0.00   0.000
  S29                        5.84       0.00       0.00       5.80       0.01        0.00     0.00   0.002
  S30                        6.35       0.00       0.00       6.33       0.01        0.00     0.00   0.001
  S31                        6.35       0.00       0.00       6.34       0.00        0.00     0.00   0.000
  S32                        6.35       0.00       0.00       4.93       0.48        0.00     0.00   0.076
  S33                        6.35       0.00       0.00       2.25       1.39        0.02     0.01   0.218
  S34                        6.35       0.00       0.00       3.44       1.17        0.41     0.09   0.184
  S35                        6.35       0.00       0.00       4.01       0.79        0.00     0.00   0.125
  S36                        6.35       0.00       0.00       5.25       0.37        0.00     0.00   0.059
  S37                        6.35       0.00       0.00       2.52       1.29        0.01     0.00   0.204
  S39                        6.35       0.00       0.00       4.14       0.75        0.11     0.04   0.117
  S40                        6.35       0.00       0.00       4.71       0.55        0.01     0.00   0.087
  S41                        6.35       0.00       0.00       2.81       1.19        0.16     0.06   0.187
  S42                        6.35       0.00       0.00       3.14       1.07        0.11     0.04   0.169
  S43                        6.35       0.00       0.00       4.98       0.46        0.01     0.00   0.073
  S44                        6.35       0.00       0.00       3.20       1.05        0.24     0.07   0.165
  S45                        8.13       0.00       0.00       5.31       1.26        0.00     0.00   0.155
  S47                        8.13       0.00       0.00       4.45       1.63        0.07     0.07   0.201
  S48                        8.13       0.00       0.00       4.98       1.41        0.00     0.00   0.174
  S49                        8.13       0.00       0.00       4.56       1.56        0.29     0.16   0.192
  S51                        8.13       0.00       0.00       7.22       0.41        0.00     0.00   0.050
  S52                        8.13       0.00       0.00       4.82       1.46        0.10     0.09   0.180
  S53                        8.13       0.00       0.00       4.70       1.51        0.21     0.13   0.186
  S54                        8.13       0.00       0.00       5.53       1.14        0.11     0.04   0.140
  S55                        8.13       0.00       0.00       4.82       1.45        0.24     0.08   0.178
  S56                        8.13       0.00       0.00       6.35       0.78        0.00     0.00   0.097
  S57                        8.13       0.00       0.00       4.41       1.64        0.02     0.01   0.202
  S58                        8.13       0.00       0.00       5.09       1.34        0.05     0.02   0.164
  S59                        8.13       0.00       0.00       7.23       0.40        0.01     0.00   0.049
  S60                        8.13       0.00       0.00       6.27       0.82        0.02     0.01   0.101
  S61                        8.13       0.00       0.00       7.35       0.34        0.00     0.00   0.042
  S62                        8.13       0.00       0.00       6.97       0.51        0.01     0.01   0.063
  S63                        6.35       0.00       0.00       5.49       0.29        0.00     0.00   0.046
  S64                        6.35       0.00       0.00       3.38       1.01        0.01     0.01   0.159
  S65                        6.35       0.00       0.00       4.53       0.61        0.10     0.03   0.095
  
  
  ****************************
  Subcatchment Washoff Summary
  ****************************
  
  --------------------------------------------------------------
                                 TSS            TP           TDP
  Subcatchment                    kg            kg            kg
  --------------------------------------------------------------
  S0                           0.006         0.000         0.000
  S1                          81.369         0.124         0.105
  S2                         272.535         0.244         0.236
  S3                          50.738         0.038         0.030
  S4                         149.345         0.141         0.123
  S6                          11.441         0.032         0.020
  S7                         510.186         0.218         0.565
  S8                           1.116         0.000         0.000
  S9                           1.271         0.000         0.001
  S10                         12.805         0.005         0.006
  S11                          1.353         0.000         0.000
  S12                          0.727         0.000         0.000
  S13                         62.607         0.123         0.080
  S14                         17.844         0.003         0.009
  S16                        126.563         0.026         0.036
  S17                        303.633         0.252         0.269
  S18                          1.278         0.000         0.001
  S19                         42.386         0.009         0.032
  S20                         20.791         0.005         0.011
  S21                        244.450         1.371         0.963
  S22                          8.444         0.002         0.004
  S23                         19.725         0.002         0.022
  S24                         40.125         0.028         0.027
  S25                         14.100         0.002         0.024
  S27                         22.059         0.005         0.012
  S28                          0.000         0.000         0.000
  S29                          0.000         0.000         0.000
  S30                          0.000         0.000         0.000
  S31                          0.000         0.000         0.000
  S32                          3.610         0.001         0.004
  S33                         38.828         0.015         0.023
  S34                       1063.826         0.408         0.104
  S35                         11.978         0.003         0.007
  S36                         10.145         0.001         0.007
  S37                         16.460         0.004         0.013
  S39                        252.672         0.120         0.198
  S40                         28.646         0.003         0.020
  S41                        288.915         0.213         0.208
  S42                        206.384         0.121         0.163
  S43                         17.396         0.002         0.014
  S44                        428.212         0.245         0.352
  S45                          1.871         0.000         0.001
  S47                        106.932         0.047         0.080
  S48                         12.081         0.003         0.006
  S49                        359.933         0.196         0.343
  S51                          8.851         0.001         0.010
  S52                        141.396         0.082         0.116
  S53                        267.558         0.210         0.208
  S54                        192.917         0.063         0.191
  S55                        303.486         0.144         0.320
  S56                          0.105         0.000         0.000
  S57                          6.589         0.001         0.020
  S58                        100.180         0.050         0.071
  S59                         55.369         0.014         0.020
  S60                         30.400         0.004         0.040
  S61                         13.870         0.001         0.005
  S62                         22.355         0.002         0.027
  S63                         13.705         0.003         0.005
  S64                         13.594         0.001         0.029
  S65                        359.415         0.114         0.185
  --------------------------------------------------------------
  System                    6394.575         4.707         5.371
  
  
  ******************
  Node Depth Summary
  ******************
  
  ---------------------------------------------------------------------------------
                                 Average  Maximum  Maximum  Time of Max    Reported
                                   Depth    Depth      HGL   Occurrence   Max Depth
  Node                 Type       Meters   Meters   Meters  days hr:min      Meters
  ---------------------------------------------------------------------------------
  FID1936              JUNCTION     0.15     0.32  1376.62     0  04:05        0.10
  FID1955              JUNCTION     0.16     0.28  1376.20     0  04:15        0.09
  FID1960              JUNCTION     0.15     0.25  1376.11     0  04:15        0.08
  FID1965              JUNCTION     0.14     0.24  1376.54     0  04:15        0.07
  FID1968              JUNCTION     0.14     0.20  1376.60     0  04:15        0.06
  FID2239              JUNCTION     0.14     0.25  1374.76     0  04:20        0.08
  FID2241              JUNCTION     0.13     0.18  1373.31     0  04:20        0.06
  FID2242              JUNCTION     0.13     0.19  1374.23     0  04:20        0.06
  FID2244              JUNCTION     0.13     0.18  1374.54     0  04:20        0.05
  FID2440              JUNCTION     0.38     0.50  1374.75     0  04:29        0.15
  FID2442              JUNCTION     0.00     0.00  1375.27     0  00:00        0.00
  FID2446              JUNCTION     0.16     0.40  1376.20     0  04:05        0.12
  FID2447              JUNCTION     0.15     0.35  1376.05     0  04:05        0.11
  FID2455              JUNCTION     0.29     0.42  1374.41     0  04:31        0.13
  FID2711              JUNCTION     0.13     0.19  1370.37     0  04:20        0.06
  FID2719              JUNCTION     0.16     0.27  1370.37     0  04:05        0.08
  FID2720              JUNCTION     0.16     0.26  1370.46     0  04:20        0.08
  FID2824              JUNCTION     0.12     0.17  1371.45     0  04:20        0.05
  FID2827              JUNCTION     0.13     0.21  1371.51     0  04:20        0.07
  FID2828              JUNCTION     0.14     0.21  1371.53     0  04:20        0.06
  FID2832              JUNCTION     0.16     0.25  1370.85     0  04:20        0.08
  FID2833              JUNCTION     0.20     0.37  1370.99     0  04:20        0.11
  FID2839              JUNCTION     0.17     0.27  1371.47     0  04:10        0.08
  FID2873              JUNCTION     0.16     0.28  1370.98     0  04:20        0.08
  FID2964              JUNCTION     0.16     0.26  1371.04     0  04:20        0.08
  FID2965              JUNCTION     0.38     0.63  1370.89     0  04:38        0.19
  FID4584              JUNCTION     0.10     0.19  1371.53     0  04:20        0.06
  FID5068              JUNCTION     0.13     0.18  1375.56     0  04:20        0.06
  FID5072              JUNCTION     0.46     0.63  1373.92     0  04:41        0.19
  FID5140              JUNCTION     0.16     0.25  1373.47     0  03:30        0.08
  FID5435              JUNCTION     0.16     0.26  1373.01     0  04:20        0.08
  FID5437              JUNCTION     0.12     0.17  1373.12     0  04:20        0.05
  FID5503              JUNCTION     0.11     0.16  1371.49     0  04:20        0.05
  FID5504              JUNCTION     0.15     0.22  1371.58     0  04:20        0.07
  FID5527              JUNCTION     0.14     0.19  1372.69     0  04:20        0.06
  FID5568              JUNCTION     0.44     0.61  1373.00     0  04:49        0.18
  FID5784              JUNCTION     0.44     0.61  1372.61     0  04:54        0.19
  FID5785              JUNCTION     0.14     0.21  1374.64     0  04:21        0.07
  AFID6926             JUNCTION     0.15     0.20  1370.00     0  04:45        0.06
  AFID7360             JUNCTION     0.43     0.71  1370.84     0  04:38        0.22
  AFID7363             JUNCTION     0.42     0.69  1370.86     0  04:38        0.21
  AFID7376             JUNCTION     0.18     0.30  1371.53     0  04:20        0.09
  AFID7377             JUNCTION     0.36     0.55  1371.23     0  04:32        0.17
  AFID7705             JUNCTION     0.50     0.55  1375.52     0  04:25        0.17
  AFID7706             JUNCTION     0.55     0.61  1375.53     0  04:25        0.19
  AFID7792             JUNCTION     0.17     0.29  1375.09     0  04:20        0.09
  AFID8223             JUNCTION     0.44     0.61  1372.61     0  04:53        0.19
  J1                   JUNCTION     0.74     0.75  1375.74     0  04:30        0.23
  FID4901              JUNCTION     0.46     0.50  1375.57     0  04:28        0.15
  J9                   JUNCTION     0.62     0.64  1375.73     0  04:30        0.19
  J11                  JUNCTION     0.47     0.49  1375.69     0  04:30        0.15
  J12                  JUNCTION     0.46     0.49  1375.61     0  04:28        0.15
  J13                  JUNCTION     0.46     0.50  1375.58     0  04:28        0.15
  FID4902              JUNCTION     0.48     0.52  1375.57     0  04:27        0.16
  J14                  JUNCTION     0.37     0.45  1375.36     0  04:21        0.14
  J15                  JUNCTION     0.34     0.44  1375.10     0  04:23        0.13
  J16                  JUNCTION     0.35     0.45  1375.09     0  04:23        0.14
  FID2449              JUNCTION     0.39     0.50  1374.82     0  04:28        0.15
  J17                  JUNCTION     0.27     0.42  1374.39     0  04:31        0.13
  J19                  JUNCTION     0.40     0.57  1374.11     0  04:38        0.17
  FID5069              JUNCTION     0.49     0.66  1373.91     0  04:41        0.20
  FID5139              JUNCTION     0.45     0.61  1372.97     0  04:49        0.19
  J24                  JUNCTION     0.45     0.62  1372.98     0  04:49        0.19
  FID4984              JUNCTION     0.46     0.63  1372.59     0  04:54        0.19
  FID2669              JUNCTION     0.31     0.53  1368.97     0  04:44        0.16
  FID2712              JUNCTION     0.33     0.56  1369.75     0  04:41        0.17
  FID2718              JUNCTION     0.33     0.56  1369.80     0  04:41        0.17
  FID2838              JUNCTION     0.50     0.80  1370.75     0  04:38        0.25
  FID2825              JUNCTION     0.55     0.87  1370.77     0  04:39        0.26
  FID2823              JUNCTION     0.59     0.92  1370.79     0  04:39        0.28
  FID5505              JUNCTION     0.49     0.79  1370.82     0  04:39        0.24
  FID5436              JUNCTION     0.47     0.66  1371.98     0  04:23        0.20
  FID5438              JUNCTION     0.40     0.58  1372.00     0  04:32        0.18
  J49                  JUNCTION     0.49     0.54  1375.56     0  04:27        0.16
  J50                  JUNCTION     0.53     0.58  1375.54     0  04:26        0.18
  J51                  JUNCTION     0.58     0.64  1375.53     0  04:25        0.19
  J52                  JUNCTION     0.59     0.65  1375.53     0  04:25        0.20
  J53                  JUNCTION     0.38     0.45  1375.37     0  04:21        0.14
  J54                  JUNCTION     0.38     0.45  1375.40     0  04:22        0.14
  J55                  JUNCTION     0.43     0.49  1375.51     0  04:25        0.15
  J56                  JUNCTION     0.41     0.46  1375.49     0  04:24        0.14
  J57                  JUNCTION     0.38     0.44  1375.47     0  04:24        0.13
  J58                  JUNCTION     0.38     0.44  1375.42     0  04:23        0.14
  FID1935              JUNCTION     0.38     0.46  1375.35     0  04:21        0.14
  J59                  JUNCTION     0.38     0.46  1375.33     0  04:22        0.14
  J60                  JUNCTION     0.37     0.45  1375.27     0  04:23        0.14
  J61                  JUNCTION     0.35     0.43  1375.20     0  04:24        0.13
  J62                  JUNCTION     0.34     0.42  1375.17     0  04:24        0.13
  J63                  JUNCTION     0.35     0.44  1375.13     0  04:24        0.14
  J64                  JUNCTION     0.34     0.43  1375.05     0  04:24        0.13
  J65                  JUNCTION     0.30     0.41  1374.98     0  04:26        0.12
  J66                  JUNCTION     0.38     0.50  1374.71     0  04:30        0.15
  J67                  JUNCTION     0.37     0.49  1374.64     0  04:30        0.15
  J68                  JUNCTION     0.36     0.47  1374.54     0  04:31        0.14
  J69                  JUNCTION     0.48     0.63  1374.36     0  04:32        0.19
  J70                  JUNCTION     0.46     0.62  1374.27     0  04:34        0.19
  J71                  JUNCTION     0.44     0.60  1374.19     0  04:36        0.18
  J72                  JUNCTION     0.47     0.64  1373.99     0  04:41        0.19
  J73                  JUNCTION     0.49     0.66  1373.88     0  04:42        0.20
  J74                  JUNCTION     0.49     0.66  1373.64     0  04:45        0.20
  J75                  JUNCTION     0.50     0.66  1373.51     0  04:47        0.20
  J76                  JUNCTION     0.45     0.61  1372.95     0  04:49        0.19
  J77                  JUNCTION     0.45     0.61  1372.82     0  04:50        0.19
  J78                  JUNCTION     0.44     0.61  1372.68     0  04:52        0.19
  J79                  JUNCTION     0.44     0.61  1372.62     0  04:53        0.19
  J80                  JUNCTION     0.38     0.54  1372.03     0  04:36        0.17
  J81                  JUNCTION     0.46     0.64  1371.63     0  04:33        0.20
  J82                  JUNCTION     0.45     0.63  1371.56     0  04:33        0.19
  J83                  JUNCTION     0.37     0.57  1371.37     0  04:34        0.17
  J84                  JUNCTION     0.34     0.52  1371.16     0  04:33        0.16
  J85                  JUNCTION     0.34     0.53  1371.05     0  04:35        0.16
  J86                  JUNCTION     0.35     0.57  1370.95     0  04:37        0.17
  J87                  JUNCTION     0.41     0.67  1370.86     0  04:38        0.21
  J88                  JUNCTION     0.48     0.77  1370.82     0  04:39        0.24
  J89                  JUNCTION     0.51     0.82  1370.81     0  04:39        0.25
  J90                  JUNCTION     0.48     0.78  1370.73     0  04:38        0.24
  J91                  JUNCTION     0.47     0.78  1370.67     0  04:39        0.24
  J92                  JUNCTION     0.47     0.78  1370.61     0  04:40        0.24
  J93                  JUNCTION     0.47     0.78  1370.50     0  04:40        0.24
  J94                  JUNCTION     0.47     0.77  1370.43     0  04:40        0.24
  J95                  JUNCTION     0.47     0.77  1370.41     0  04:40        0.24
  J96                  JUNCTION     0.46     0.76  1370.32     0  04:41        0.23
  J97                  JUNCTION     0.45     0.75  1370.25     0  04:41        0.23
  J98                  JUNCTION     0.44     0.73  1370.18     0  04:42        0.22
  J99                  JUNCTION     0.43     0.71  1370.11     0  04:42        0.22
  J100                 JUNCTION     0.42     0.69  1370.05     0  04:42        0.21
  J101                 JUNCTION     0.40     0.66  1369.98     0  04:42        0.20
  J102                 JUNCTION     0.33     0.56  1369.83     0  04:41        0.17
  J103                 JUNCTION     0.33     0.56  1369.78     0  04:41        0.17
  J104                 JUNCTION     0.33     0.55  1369.71     0  04:41        0.17
  J105                 JUNCTION     0.32     0.54  1369.67     0  04:41        0.17
  J106                 JUNCTION     0.31     0.52  1369.60     0  04:41        0.16
  J107                 JUNCTION     0.31     0.52  1369.46     0  04:42        0.16
  J108                 JUNCTION     0.31     0.53  1369.32     0  04:43        0.16
  J109                 JUNCTION     0.31     0.53  1369.21     0  04:43        0.16
  J110                 JUNCTION     0.31     0.53  1369.11     0  04:44        0.16
  J111                 JUNCTION     0.31     0.53  1369.01     0  04:44        0.16
  J112                 JUNCTION     0.31     0.53  1368.85     0  04:45        0.16
  J113                 JUNCTION     0.31     0.53  1368.76     0  04:45        0.16
  J114                 JUNCTION     0.31     0.53  1368.64     0  04:45        0.16
  J115                 JUNCTION     0.31     0.53  1368.58     0  04:46        0.16
  J116                 JUNCTION     0.31     0.53  1368.51     0  04:46        0.16
  J117                 JUNCTION     0.31     0.53  1368.41     0  04:46        0.16
  J118                 JUNCTION     0.31     0.54  1368.31     0  04:46        0.16
  J119                 JUNCTION     0.32     0.54  1368.25     0  04:47        0.16
  J120                 JUNCTION     0.34     0.56  1368.16     0  04:47        0.17
  FID2451              JUNCTION     0.38     0.49  1374.78     0  04:29        0.15
  J121                 JUNCTION     0.35     0.55  1371.29     0  04:33        0.17
  J122                 JUNCTION     0.36     0.55  1371.26     0  04:32        0.17
  FID3706              JUNCTION     0.47     0.78  1370.51     0  04:40        0.24
  FID2831              JUNCTION     0.47     0.77  1370.40     0  04:40        0.24
  FID2689              OUTFALL      0.21     0.36  1367.86     0  04:47        0.11
  
  
  *******************
  Node Inflow Summary
  *******************
  
  -------------------------------------------------------------------------------------------------
                                  Maximum  Maximum                  Lateral       Total        Flow
                                  Lateral    Total  Time of Max      Inflow      Inflow     Balance
                                   Inflow   Inflow   Occurrence      Volume      Volume       Error
  Node                 Type           CMS      CMS  days hr:min    10^6 ltr    10^6 ltr     Percent
  -------------------------------------------------------------------------------------------------
  FID1936              JUNCTION     0.089    0.089     0  04:05      0.0982      0.0982       0.178
  FID1955              JUNCTION     0.081    0.081     0  04:15       0.236       0.236       0.076
  FID1960              JUNCTION     0.041    0.041     0  04:15       0.108       0.108       0.162
  FID1965              JUNCTION     0.021    0.021     0  04:15      0.0544      0.0544       0.324
  FID1968              JUNCTION     0.006    0.006     0  04:15      0.0164      0.0164       1.075
  FID2239              JUNCTION     0.006    0.006     0  04:20       0.015       0.015       2.027
  FID2241              JUNCTION     0.000    0.005     0  04:20           0       0.014       1.254
  FID2242              JUNCTION     0.005    0.005     0  04:20      0.0141      0.0141       1.311
  FID2244              JUNCTION     0.003    0.003     0  04:20      0.0055      0.0055       3.268
  FID2440              JUNCTION     0.000    0.736     0  04:27           0        13.3       0.291
  FID2442              JUNCTION     0.000    0.000     0  00:00           0           0       0.000 ltr
  FID2446              JUNCTION     0.068    0.068     0  04:05      0.0695      0.0695       1.173
  FID2447              JUNCTION     0.000    0.068     0  04:05           0      0.0686      -0.045
  FID2455              JUNCTION     0.036    0.757     0  04:30       0.109        13.1       0.281
  FID2711              JUNCTION     0.000    0.006     0  04:20           0      0.0169       1.009
  FID2719              JUNCTION     0.026    0.026     0  04:05      0.0795      0.0795       0.232
  FID2720              JUNCTION     0.007    0.007     0  04:20      0.0172      0.0172       1.343
  FID2824              JUNCTION     0.000    0.002     0  04:20    0.000389     0.00365       4.718
  FID2827              JUNCTION     0.000    0.002     0  04:20    0.000284     0.00343       5.186
  FID2828              JUNCTION     0.002    0.002     0  04:20     0.00335     0.00335       6.577
  FID2832              JUNCTION     0.000    0.065     0  04:20           0       0.215       0.099
  FID2833              JUNCTION     0.066    0.066     0  04:20       0.215       0.215       0.134
  FID2839              JUNCTION     0.104    0.104     0  04:10       0.436       0.436       0.064
  FID2873              JUNCTION     0.017    0.017     0  04:20      0.0408      0.0408       1.389
  FID2964              JUNCTION     0.044    0.044     0  04:20       0.128       0.128       0.138
  FID2965              JUNCTION     0.000    0.947     0  04:32           0        12.8       0.402
  FID4584              JUNCTION     0.000    0.001     0  04:12           0    0.000282     122.459
  FID5068              JUNCTION     0.003    0.003     0  04:20     0.00676     0.00676       2.635
  FID5072              JUNCTION     0.040    0.773     0  04:38        0.11        12.7       0.271
  FID5140              JUNCTION     0.090    0.090     0  03:30       0.412       0.412       0.040
  FID5435              JUNCTION     0.242    0.242     0  04:20       0.879       0.879       0.021
  FID5437              JUNCTION     0.001    0.001     0  04:20     0.00185     0.00185      10.432
  FID5503              JUNCTION     0.000    0.000     0  04:10    0.000269    0.000269     182.098
  FID5504              JUNCTION     0.026    0.026     0  04:20      0.0855      0.0855       0.209
  FID5527              JUNCTION     0.006    0.006     0  04:20      0.0178      0.0178       1.004
  FID5568              JUNCTION     0.001    0.767     0  04:47     0.00264        12.3       0.962
  FID5784              JUNCTION     0.000    0.797     0  04:50           0        12.6       0.134
  FID5785              JUNCTION     0.000    0.006     0  04:20           0      0.0147       1.395
  AFID6926             JUNCTION     0.016    0.016     0  04:45      0.0827      0.0827       0.217
  AFID7360             JUNCTION     0.000    0.941     0  04:35    0.000162        12.7       0.296
  AFID7363             JUNCTION     0.000    0.942     0  04:35           0        12.7       0.144
  AFID7376             JUNCTION     0.066    0.066     0  04:20       0.233       0.233       0.079
  AFID7377             JUNCTION     0.000    0.938     0  04:30           0        12.9       0.153
  AFID7705             JUNCTION     0.000    0.549     0  04:17           0        13.5       0.301
  AFID7706             JUNCTION     0.000    0.517     0  04:19           0        13.4       0.285
  AFID7792             JUNCTION     0.070    0.070     0  04:20       0.237       0.237       0.082
  AFID8223             JUNCTION     0.000    0.796     0  04:50           0        12.5       0.030
  J1                   JUNCTION     0.661    0.661     0  04:15          21          21       0.162
  FID4901              JUNCTION     0.000    0.453     0  04:30           0        13.6       0.258
  J9                   JUNCTION     0.000    0.660     0  04:15           0          21       0.330
  J11                  JUNCTION     0.000    0.659     0  04:15           0        20.9       0.581
  J12                  JUNCTION     0.004    0.660     0  04:30        0.01        20.8       0.636
  J13                  JUNCTION    -0.220    0.663     0  04:36       -7.13        20.6      -0.201
  FID4902              JUNCTION     0.000    0.457     0  04:30           0        13.6       0.406
  J14                  JUNCTION     0.135    0.604     0  04:20        0.21        13.3       0.225
  J15                  JUNCTION     0.161    0.696     0  04:21       0.293        13.4       0.192
  J16                  JUNCTION     0.005    0.695     0  04:22     0.00407        13.4       0.193
  FID2449              JUNCTION     0.001    0.684     0  04:25    0.000587        13.2       1.529
  J17                  JUNCTION     0.056    0.790     0  04:30       0.162        13.3       0.141
  J19                  JUNCTION     0.007    0.776     0  04:33      0.0141          13       1.652
  FID5069              JUNCTION     0.000    0.773     0  04:39           0        12.7       0.241
  FID5139              JUNCTION     0.000    0.792     0  04:47           0        12.6       0.073
  J24                  JUNCTION     0.007    0.767     0  04:50      0.0161        12.2       0.109
  FID4984              JUNCTION     0.000    0.798     0  04:50           0        12.6       1.124
  FID2669              JUNCTION     0.000    1.047     0  04:44           0        12.8       0.105
  FID2712              JUNCTION     0.000    1.032     0  04:40           0        12.9       0.127
  FID2718              JUNCTION     0.000    1.029     0  04:40           0        12.9       0.092
  FID2838              JUNCTION     0.000    0.988     0  04:35           0          13       0.257
  FID2825              JUNCTION     0.000    0.951     0  04:39           0        12.6       0.427
  FID2823              JUNCTION     0.000    0.950     0  04:38           0        12.6       0.698
  FID5505              JUNCTION     0.000    0.952     0  04:36           0        12.7       0.187
  FID5436              JUNCTION     0.000    0.909     0  04:20           0        13.2       1.120
  FID5438              JUNCTION     0.000    0.798     0  04:55           0        12.3       0.205
  J49                  JUNCTION     0.000    0.457     0  04:30           0        13.5       0.653
  J50                  JUNCTION     0.000    0.459     0  04:35    0.000121        13.5       1.133
  J51                  JUNCTION     0.000    0.465     0  04:36           0        13.3       0.904
  J52                  JUNCTION     0.000    0.470     0  04:36           0        13.2       0.267
  J53                  JUNCTION     0.000    0.551     0  04:30           0        13.1       0.245
  J54                  JUNCTION     0.000    0.548     0  04:30           0        13.2       0.362
  J55                  JUNCTION     0.000    0.548     0  04:17           0        13.4       0.341
  J56                  JUNCTION     0.000    0.547     0  04:17           0        13.4       0.369
  J57                  JUNCTION     0.000    0.544     0  04:17           0        13.3       0.463
  J58                  JUNCTION     0.001    0.545     0  04:30     0.00295        13.3       0.496
  FID1935              JUNCTION     0.000    0.647     0  04:20           0        13.4       0.291
  J59                  JUNCTION     0.000    0.641     0  04:20           0        13.4       0.410
  J60                  JUNCTION     0.005    0.633     0  04:20     0.00409        13.3       0.641
  J61                  JUNCTION     0.000    0.622     0  04:22           0        13.2       0.431
  J62                  JUNCTION     0.000    0.620     0  04:24           0        13.2       0.195
  J63                  JUNCTION     0.000    0.621     0  04:24           0        13.1       0.198
  J64                  JUNCTION     0.000    0.694     0  04:22           0        13.4       0.201
  J65                  JUNCTION     0.013    0.695     0  04:22      0.0131        13.3       1.174
  J66                  JUNCTION     0.000    0.735     0  04:28           0        13.2       0.367
  J67                  JUNCTION     0.000    0.734     0  04:29           0        13.2       0.545
  J68                  JUNCTION     0.004    0.735     0  04:30     0.00894        13.1       0.584
  J69                  JUNCTION     0.000    0.789     0  04:30           0        13.2       0.593
  J70                  JUNCTION     0.002    0.785     0  04:30      0.0045        13.2       0.760
  J71                  JUNCTION     0.000    0.780     0  04:32           0        13.1       0.553
  J72                  JUNCTION     0.005    0.768     0  04:37      0.0121        12.8       1.811
  J73                  JUNCTION     0.000    0.773     0  04:39           0        12.6       0.548
  J74                  JUNCTION     0.000    0.772     0  04:41           0        12.6       0.802
  J75                  JUNCTION     0.002    0.769     0  04:43     0.00468        12.5       1.249
  J76                  JUNCTION     0.000    0.792     0  04:47           0        12.6       0.298
  J77                  JUNCTION     0.031    0.799     0  04:47       0.102        12.7       0.552
  J78                  JUNCTION     0.000    0.798     0  04:48           0        12.6       0.413
  J79                  JUNCTION     0.000    0.797     0  04:50           0        12.6       0.150
  J80                  JUNCTION     0.005    0.796     0  04:53      0.0119        12.4       0.937
  J81                  JUNCTION     0.001    0.897     0  04:23     0.00208          13       1.651
  J82                  JUNCTION     0.000    0.893     0  04:32           0        12.8       0.656
  J83                  JUNCTION     0.000    0.892     0  04:33           0        12.7       0.504
  J84                  JUNCTION     0.000    0.937     0  04:30           0        12.9       0.271
  J85                  JUNCTION     0.000    0.936     0  04:31           0        12.8       0.506
  J86                  JUNCTION     0.000    0.933     0  04:33           0        12.8       0.537
  J87                  JUNCTION     0.002    0.943     0  04:34     0.00321        12.8       0.222
  J88                  JUNCTION     0.000    0.940     0  04:37           0        12.7       0.336
  J89                  JUNCTION     0.000    0.951     0  04:36           0        12.7       0.510
  J90                  JUNCTION     0.000    0.988     0  04:36           0        12.9       0.186
  J91                  JUNCTION     0.000    0.987     0  04:37           0        12.9       0.257
  J92                  JUNCTION     0.000    0.986     0  04:38     1.3e-06        12.9       0.322
  J93                  JUNCTION     0.000    0.991     0  04:39           0        12.8       0.172
  J94                  JUNCTION     0.000    0.991     0  04:40    2.33e-06        12.8       0.195
  J95                  JUNCTION     0.000    0.991     0  04:41           0        12.8       0.074
  J96                  JUNCTION     0.000    1.018     0  04:38           0          13       0.278
  J97                  JUNCTION     0.000    1.017     0  04:39           0        12.9       0.235
  J98                  JUNCTION     0.000    1.016     0  04:40           0        12.9       0.208
  J99                  JUNCTION     0.000    1.016     0  04:41           0        12.9       0.177
  J100                 JUNCTION     0.000    1.016     0  04:41           0        12.8       0.149
  J101                 JUNCTION     0.000    1.016     0  04:42           0        12.8       0.173
  J102                 JUNCTION     0.000    1.016     0  04:42           0        12.8       0.137
  J103                 JUNCTION     0.000    1.029     0  04:40           0        12.8       0.103
  J104                 JUNCTION     0.000    1.032     0  04:40           0        12.8       0.135
  J105                 JUNCTION     0.000    1.032     0  04:40           0        12.8       0.165
  J106                 JUNCTION     0.000    1.032     0  04:41           0        12.8       0.186
  J107                 JUNCTION     0.000    1.031     0  04:41           0        12.8       0.192
  J108                 JUNCTION     0.000    1.031     0  04:42    7.77e-06        12.8       0.173
  J109                 JUNCTION     0.000    1.031     0  04:42           0        12.7       0.146
  J110                 JUNCTION     0.000    1.031     0  04:43           0        12.7       0.142
  J111                 JUNCTION     0.000    1.031     0  04:43    6.82e-05        12.7       0.105
  J112                 JUNCTION     0.000    1.047     0  04:44           0        12.7       0.148
  J113                 JUNCTION     0.000    1.047     0  04:44           0        12.7       0.145
  J114                 JUNCTION     0.000    1.047     0  04:45           0        12.7       0.122
  J115                 JUNCTION     0.000    1.046     0  04:45           0        12.7       0.090
  J116                 JUNCTION     0.000    1.046     0  04:45    2.17e-06        12.7       0.119
  J117                 JUNCTION     0.000    1.046     0  04:46           0        12.7       0.148
  J118                 JUNCTION     0.000    1.046     0  04:46           0        12.6       0.130
  J119                 JUNCTION     0.000    1.046     0  04:46           0        12.6       0.127
  J120                 JUNCTION     0.000    1.046     0  04:46           0        12.6       0.157
  FID2451              JUNCTION     0.000    0.687     0  04:26           0        13.1       0.284
  J121                 JUNCTION     0.003    0.893     0  04:35     0.00629        12.7       0.150
  J122                 JUNCTION     0.000    0.893     0  04:35    0.000285        12.7       0.131
  FID3706              JUNCTION     0.000    0.992     0  04:38           0        12.9       0.253
  FID2831              JUNCTION     0.000    1.018     0  04:37           0          13       0.171
  FID2689              OUTFALL      0.000    1.046     0  04:47           0        12.6       0.000
  
  
  **********************
  Node Surcharge Summary
  **********************
  
  No nodes were surcharged.
  
  
  *********************
  Node Flooding Summary
  *********************
  
  No nodes were flooded.
  
  
  ***********************
  Outfall Loading Summary
  ***********************
  
  -----------------------------------------------------------------------------------------------------
                         Flow       Avg       Max       Total         Total         Total         Total
                         Freq      Flow      Flow      Volume           TSS            TP           TDP
  Outfall Node           Pcnt       CMS       CMS    10^6 ltr            kg            kg            kg
  -----------------------------------------------------------------------------------------------------
  FID2689               73.37     0.673     1.046      12.597      6412.885         5.000         5.640
  -----------------------------------------------------------------------------------------------------
  System                73.37     0.673     1.046      12.597      6412.885         5.000         5.640
  
  
  ********************
  Link Flow Summary
  ********************
  
  -----------------------------------------------------------------------------
                                 Maximum  Time of Max   Maximum    Max/    Max/
                                  |Flow|   Occurrence   |Veloc|    Full    Full
  Link                 Type          CMS  days hr:min     m/sec    Flow   Depth
  -----------------------------------------------------------------------------
  FID1123              CONDUIT     0.017     0  04:20      0.70    0.31    0.36
  FID1139              CONDUIT     0.025     0  04:05      0.87    0.20    0.30
  FID1148              CONDUIT     0.065     0  04:20      0.71    0.18    0.20
  FID1149              CONDUIT     0.065     0  04:20      1.30    0.02    0.21
  FID3364              CONDUIT     0.065     0  04:20      0.40    0.06    0.29
  FID3671              CONDUIT     0.006     0  04:15      0.90    0.05    0.15
  FID3672              CONDUIT     0.021     0  04:15      1.26    0.17    0.28
  FID3762              CONDUIT     0.041     0  04:15      1.01    0.14    0.39
  FID3765              CONDUIT     0.081     0  04:15      1.60    0.25    0.45
  FID4112              CONDUIT     0.089     0  04:05      1.33    0.17    0.28
  FID4186              CONDUIT     0.005     0  04:20      0.68    0.03    0.11
  FID4187              CONDUIT     0.005     0  04:20      1.06    0.01    0.08
  FID4201              CONDUIT     0.068     0  04:05      0.99    0.77    0.58
  FID4202              CONDUIT     0.067     0  04:05      1.15    0.54    0.51
  FID4203              CONDUIT     0.000     0  00:00      0.00    0.00    0.19
  FID4299              CONDUIT     0.003     0  04:20      0.68    0.01    0.08
  FID4372              CONDUIT     0.089     0  03:30      0.71    0.02    0.25
  FID4498              CONDUIT     0.044     0  04:20      0.77    0.11    0.59
  FID4806              CONDUIT     0.242     0  04:20      5.35    0.03    0.12
  FID4807              CONDUIT     0.001     0  04:20      0.52    0.01    0.05
  FID4882              CONDUIT     0.000     0  04:20      0.01    0.00    0.52
  FID4884              CONDUIT     0.026     0  04:20      1.32    0.01    0.07
  FID4914              CONDUIT     0.006     0  04:20      0.10    0.03    0.55
  FID4915              CONDUIT     0.002     0  04:20      0.14    0.05    0.16
  FID4916              CONDUIT     0.002     0  04:20      0.21    0.05    0.12
  FID4917              CONDUIT     0.002     0  04:20      0.48    0.01    0.37
  FID5307              CONDUIT     0.006     0  04:20      0.33    0.11    0.21
  FID5308              CONDUIT     0.003     0  04:20      0.85    0.02    0.09
  FID5312              CONDUIT     0.005     0  04:21      0.45    0.03    0.12
  FID5865              CONDUIT     0.104     0  04:10      2.31    0.05    0.18
  C9                   CHANNEL     0.660     0  04:15      0.62    0.08    0.49
  C12                  CHANNEL     0.658     0  04:34      0.42    0.34    0.57
  C13                  CHANNEL     0.663     0  04:36      0.57    0.34    0.58
  C14                  CHANNEL     0.444     0  04:37      0.57    0.23    0.58
  C52                  CONDUIT     0.070     0  04:20      0.66    0.12    0.39
  C130                 CONDUIT     0.006     0  04:20      0.32    0.13    0.18
  C131                 CONDUIT     0.006     0  04:20      0.92    0.02    0.21
  C139                 CONDUIT     0.001     0  04:12      0.04    0.01    0.25
  C191                 CHANNEL     0.457     0  04:30      0.44    0.24    0.61
  C193                 CHANNEL     0.465     0  04:36      0.34    0.24    0.71
  C194                 CHANNEL     0.470     0  04:36      0.28    0.24    0.75
  C195                 CHANNEL     0.471     0  04:36      0.33    0.11    0.59
  C196                 CONDUIT     0.453     0  04:30      0.41    0.39    0.64
  C197                 CONDUIT     0.517     0  04:30      0.23    0.28    0.83
  C198                 CHANNEL     0.548     0  04:17      0.25    0.13    0.49
  C199                 CHANNEL     0.547     0  04:17      0.27    2.80    0.57
  C200                 CHANNEL     0.544     0  04:17      0.30    2.52    0.54
  C201                 CHANNEL     0.545     0  04:30      0.29    0.19    0.44
  C202                 CHANNEL     0.548     0  04:30      0.30    0.19    0.44
  C203                 CHANNEL     0.551     0  04:30      0.29    0.19    0.45
  C204                 CHANNEL     0.553     0  04:30      0.43    0.19    0.45
  C205                 CONDUIT     0.599     0  04:21      0.28    0.49    0.55
  C206                 CHANNEL     0.641     0  04:20      0.35    0.22    0.46
  C207                 CHANNEL     0.632     0  04:20      0.33    0.22    0.45
  C208                 CHANNEL     0.622     0  04:22      0.33    0.22    0.44
  C209                 CHANNEL     0.620     0  04:24      0.34    0.22    0.43
  C210                 CHANNEL     0.621     0  04:24      0.41    0.22    0.50
  C211                 CHANNEL     0.622     0  04:25      0.39    0.26    0.45
  C212                 CONDUIT     0.695     0  04:22      0.32    0.47    0.54
  C213                 CHANNEL     0.694     0  04:22      0.44    0.29    0.45
  C214                 CHANNEL     0.692     0  04:23      0.48    0.29    0.43
  C215                 CONDUIT     0.684     0  04:25      0.31    0.46    0.55
  C216                 CONDUIT     0.680     0  04:27      0.39    0.59    0.47
  C217                 CONDUIT     0.686     0  04:26      0.33    0.32    0.36
  C218                 CHANNEL     0.735     0  04:28      0.40    0.31    0.51
  C219                 CHANNEL     0.734     0  04:29      0.40    0.31    0.50
  C220                 CHANNEL     0.733     0  04:30      0.41    0.31    0.49
  C221                 CHANNEL     0.734     0  04:31      0.45    0.31    0.45
  C222                 CONDUIT     0.755     0  04:31      0.42    0.59    0.51
  C223                 CHANNEL     0.789     0  04:30      1.35    0.12    0.46
  C224                 CHANNEL     0.785     0  04:31      0.39    0.60    0.73
  C225                 CHANNEL     0.780     0  04:32      0.40    0.59    0.71
  C226                 CHANNEL     0.775     0  04:33      0.49    0.59    0.68
  C227                 CONDUIT     0.766     0  04:37      0.30    0.73    0.73
  C228                 CHANNEL     0.764     0  04:40      0.51    0.37    0.59
  C229                 CONDUIT     0.773     0  04:39      0.23    0.16    0.43
  C230                 CHANNEL     0.773     0  04:39      0.51    0.37    0.61
  C231                 CHANNEL     0.772     0  04:41      0.49    0.37    0.61
  C232                 CHANNEL     0.769     0  04:44      0.52    0.37    0.61
  C233                 CHANNEL     0.767     0  04:47      0.51    0.37    0.59
  C234                 CONDUIT     0.767     0  04:50      0.37    0.37    0.45
  C235                 CHANNEL     0.767     0  04:50      0.53    0.37    0.57
  C236                 CHANNEL     0.792     0  04:47      0.50    0.44    0.64
  C237                 CHANNEL     0.792     0  04:48      0.50    0.44    0.64
  C238                 CHANNEL     0.798     0  04:48      0.51    0.45    0.63
  C239                 CHANNEL     0.797     0  04:50      0.51    0.45    0.63
  C240                 CHANNEL     0.796     0  04:50      0.57    0.44    0.63
  C241                 CHANNEL     0.796     0  04:50      0.71    0.45    0.63
  C242                 CONDUIT     0.797     0  04:50      0.44    0.33    0.51
  C243                 CHANNEL     0.795     0  04:53      0.54    0.45    0.61
  C244                 CHANNEL     0.798     0  04:55      0.69    0.15    0.36
  C245                 CONDUIT     0.798     0  04:55      0.41    0.26    0.48
  C246                 CHANNEL     0.892     0  04:23      0.43    0.34    0.57
  C247                 CHANNEL     0.893     0  04:32      0.44    0.34    0.56
  C248                 CHANNEL     0.892     0  04:33      0.48    0.34    0.52
  C249                 CHANNEL     0.893     0  04:35      2.49    0.42    0.52
  C250                 CONDUIT     0.893     0  04:35      0.52    0.38    0.43
  C251                 CONDUIT     0.894     0  04:35      0.52    0.38    0.43
  C252                 CHANNEL     0.937     0  04:30      1.35    0.44    0.50
  C253                 CHANNEL     0.936     0  04:31      1.31    0.25    0.49
  C254                 CHANNEL     0.933     0  04:33      1.79    0.25    0.52
  C255                 CHANNEL     0.931     0  04:35      0.42    0.25    0.57
  C256                 CHANNEL     0.943     0  04:34      0.42    0.25    0.62
  C257                 CHANNEL     0.942     0  04:35      2.53    0.25    0.64
  C258                 CONDUIT     0.941     0  04:35      0.44    0.40    0.55
  C259                 CHANNEL     0.940     0  04:37      0.43    0.25    0.70
  C260                 CHANNEL     0.940     0  04:38      0.42    0.25    0.74
  C261                 CHANNEL     0.951     0  04:36      2.02    0.25    0.76
  C262                 CHANNEL     0.950     0  04:38      0.60    0.25    0.82
  C263                 CHANNEL     0.951     0  04:40      0.40    0.26    0.57
  C264                 CONDUIT     0.951     0  04:40      0.37    0.58    0.61
  C265                 CHANNEL     0.988     0  04:36      0.49    0.27    0.50
  C266                 CHANNEL     0.987     0  04:37      0.49    0.23    0.54
  C267                 CHANNEL     0.986     0  04:38      0.52    0.23    0.54
  C268                 CHANNEL     0.985     0  04:39      0.49    0.23    0.54
  C269                 CHANNEL     0.991     0  04:39      0.53    0.23    0.54
  C270                 CHANNEL     0.991     0  04:40      0.49    0.23    0.54
  C271                 CHANNEL     0.991     0  04:41      0.49    0.23    0.54
  C272                 CHANNEL     0.992     0  04:41      0.49    0.23    0.54
  C273                 CHANNEL     1.018     0  04:38      0.52    0.23    0.54
  C274                 CHANNEL     1.017     0  04:39      0.53    0.23    0.53
  C275                 CHANNEL     1.016     0  04:40      0.54    0.23    0.52
  C276                 CHANNEL     1.016     0  04:41      0.56    0.23    0.51
  C277                 CHANNEL     1.016     0  04:41      0.59    0.23    0.49
  C278                 CHANNEL     1.016     0  04:42      0.63    0.23    0.47
  C279                 CHANNEL     1.016     0  04:42      0.73    0.23    0.43
  C280                 CHANNEL     1.016     0  04:43      0.54    0.41    0.57
  C281                 CHANNEL     1.029     0  04:40      0.55    0.41    0.57
  C282                 CHANNEL     1.029     0  04:41      0.56    0.41    0.57
  C283                 CHANNEL     1.032     0  04:40      0.56    0.41    0.56
  C284                 CHANNEL     1.032     0  04:40      0.57    0.41    0.56
  C285                 CHANNEL     1.032     0  04:41      0.59    0.41    0.54
  C286                 CHANNEL     1.031     0  04:41      0.70    0.29    0.53
  C287                 CHANNEL     1.031     0  04:42      0.70    0.29    0.53
  C288                 CHANNEL     1.031     0  04:42      0.70    0.29    0.54
  C289                 CHANNEL     1.031     0  04:43      0.70    0.29    0.54
  C290                 CHANNEL     1.031     0  04:43      0.70    0.29    0.54
  C291                 CHANNEL     1.031     0  04:44      0.70    0.29    0.54
  C292                 CHANNEL     1.047     0  04:44      0.71    0.30    0.54
  C293                 CHANNEL     1.047     0  04:44      0.71    0.30    0.54
  C294                 CHANNEL     1.047     0  04:45      0.71    0.30    0.54
  C295                 CHANNEL     1.046     0  04:45      0.71    0.30    0.54
  C296                 CHANNEL     1.046     0  04:45      0.70    0.30    0.54
  C297                 CHANNEL     1.046     0  04:46      0.70    0.30    0.54
  C298                 CHANNEL     1.046     0  04:46      0.70    0.30    0.54
  C299                 CHANNEL     1.046     0  04:46      0.69    0.30    0.55
  C300                 CHANNEL     1.046     0  04:46      0.67    0.30    0.56
  C301                 CHANNEL     1.046     0  04:47      1.07    0.22    0.35
  C302                 CHANNEL     0.659     0  04:15      0.54    0.12    0.44
  C303                 CHANNEL     0.459     0  04:35      0.39    0.24    0.65
  C353                 CONDUIT     0.016     0  04:45      1.09    0.01    0.06
  
  
  ***************************
  Flow Classification Summary
  ***************************
  
  -------------------------------------------------------------------------------------
                      Adjusted    ---------- Fraction of Time in Flow Class ---------- 
                       /Actual         Up    Down  Sub   Sup   Up    Down  Norm  Inlet 
  Conduit               Length    Dry  Dry   Dry   Crit  Crit  Crit  Crit  Ltd   Ctrl  
  -------------------------------------------------------------------------------------
  FID1123                 1.00   0.16  0.00  0.00  0.23  0.00  0.00  0.61  0.16  0.00
  FID1139                 1.00   0.15  0.00  0.00  0.00  0.00  0.00  0.85  0.00  0.00
  FID1148                 1.00   0.13  0.00  0.00  0.46  0.00  0.00  0.41  0.00  0.00
  FID1149                 1.00   0.14  0.00  0.00  0.71  0.04  0.00  0.12  0.59  0.00
  FID3364                 1.00   0.13  0.00  0.00  0.84  0.00  0.00  0.03  0.68  0.00
  FID3671                 1.00   0.17  0.00  0.00  0.00  0.00  0.00  0.83  0.00  0.00
  FID3672                 1.00   0.17  0.00  0.00  0.00  0.00  0.00  0.83  0.00  0.00
  FID3762                 1.00   0.02  0.15  0.00  0.84  0.00  0.00  0.00  0.68  0.00
  FID3765                 1.00   0.01  0.15  0.00  0.76  0.08  0.00  0.00  0.68  0.00
  FID4112                 1.00   0.15  0.00  0.00  0.00  0.00  0.00  0.85  0.00  0.00
  FID4186                 1.00   0.21  0.00  0.00  0.31  0.18  0.00  0.30  0.00  0.00
  FID4187                 1.00   0.22  0.00  0.00  0.00  0.00  0.00  0.78  0.00  0.00
  FID4201                 1.00   0.15  0.00  0.00  0.80  0.00  0.00  0.04  0.39  0.00
  FID4202                 1.00   0.16  0.00  0.00  0.00  0.00  0.00  0.84  0.00  0.00
  FID4203                 1.00   0.16  0.84  0.00  0.00  0.00  0.00  0.00  0.00  0.00
  FID4299                 1.00   0.21  0.00  0.00  0.00  0.00  0.00  0.79  0.00  0.00
  FID4372                 1.00   0.08  0.08  0.00  0.84  0.00  0.00  0.00  0.68  0.00
  FID4498                 1.00   0.13  0.00  0.00  0.82  0.00  0.00  0.05  0.66  0.00
  FID4806                 1.00   0.16  0.00  0.00  0.00  0.00  0.00  0.84  0.00  0.00
  FID4807                 1.00   0.23  0.00  0.00  0.00  0.00  0.00  0.77  0.00  0.00
  FID4882                 1.00   0.23  0.54  0.00  0.23  0.00  0.00  0.00  0.54  0.00
  FID4884                 1.00   0.14  0.00  0.00  0.00  0.00  0.00  0.86  0.00  0.00
  FID4914                 1.00   0.13  0.03  0.00  0.84  0.00  0.00  0.00  0.68  0.00
  FID4915                 1.00   0.21  0.00  0.00  0.77  0.00  0.00  0.02  0.55  0.00
  FID4916                 1.00   0.23  0.00  0.00  0.60  0.00  0.00  0.17  0.00  0.00
  FID4917                 1.00   0.24  0.00  0.00  0.50  0.00  0.00  0.25  0.40  0.00
  FID5307                 1.00   0.19  0.00  0.00  0.77  0.00  0.00  0.04  0.45  0.00
  FID5308                 1.00   0.21  0.00  0.00  0.00  0.00  0.00  0.79  0.00  0.00
  FID5312                 1.00   0.22  0.00  0.00  0.00  0.00  0.00  0.78  0.00  0.00
  FID5865                 1.00   0.13  0.00  0.00  0.23  0.06  0.00  0.58  0.22  0.00
  C9                      1.00   0.00  0.00  0.00  1.00  0.00  0.00  0.00  0.00  0.00
  C12                     1.00   0.00  0.00  0.00  1.00  0.00  0.00  0.00  0.00  0.00
  C13                     1.00   0.00  0.00  0.00  1.00  0.00  0.00  0.00  0.00  0.00
  C14                     1.00   0.00  0.00  0.00  1.00  0.00  0.00  0.00  0.00  0.00
  C52                     1.00   0.04  0.12  0.00  0.84  0.00  0.00  0.00  0.68  0.00
  C130                    1.00   0.16  0.00  0.00  0.54  0.00  0.00  0.30  0.00  0.00
  C131                    1.00   0.21  0.00  0.00  0.38  0.02  0.00  0.39  0.31  0.00
  C139                    1.00   0.13  0.56  0.00  0.28  0.00  0.03  0.00  0.49  0.00
  C191                    1.00   0.00  0.00  0.00  1.00  0.00  0.00  0.00  0.00  0.00
  C193                    1.00   0.00  0.00  0.00  1.00  0.00  0.00  0.00  0.00  0.00
  C194                    1.00   0.01  0.00  0.00  0.99  0.00  0.00  0.00  0.00  0.00
  C195                    1.00   0.01  0.00  0.00  0.99  0.00  0.00  0.00  0.00  0.00
  C196                    1.00   0.00  0.00  0.00  1.00  0.00  0.00  0.00  0.00  0.00
  C197                    1.00   0.01  0.00  0.00  0.99  0.00  0.00  0.00  0.00  0.00
  C198                    1.00   0.01  0.00  0.00  0.99  0.00  0.00  0.00  0.00  0.00
  C199                    1.00   0.01  0.00  0.00  0.99  0.00  0.00  0.00  0.00  0.00
  C200                    1.00   0.01  0.00  0.00  0.99  0.00  0.00  0.00  0.00  0.00
  C201                    1.00   0.01  0.00  0.00  0.99  0.00  0.00  0.00  0.00  0.00
  C202                    1.00   0.01  0.00  0.00  0.99  0.00  0.00  0.00  0.00  0.00
  C203                    1.00   0.01  0.00  0.00  0.99  0.00  0.00  0.00  0.00  0.00
  C204                    1.00   0.02  0.00  0.00  0.98  0.00  0.00  0.00  0.00  0.00
  C205                    1.00   0.02  0.00  0.00  0.98  0.00  0.00  0.00  0.00  0.00
  C206                    1.00   0.02  0.00  0.00  0.98  0.00  0.00  0.00  0.00  0.00
  C207                    1.00   0.02  0.00  0.00  0.98  0.00  0.00  0.00  0.00  0.00
  C208                    1.00   0.02  0.00  0.00  0.98  0.00  0.00  0.00  0.00  0.00
  C209                    1.00   0.02  0.00  0.00  0.98  0.00  0.00  0.00  0.00  0.00
  C210                    1.00   0.02  0.00  0.00  0.98  0.00  0.00  0.00  0.00  0.00
  C211                    1.00   0.03  0.00  0.00  0.97  0.00  0.00  0.00  0.00  0.00
  C212                    1.00   0.03  0.00  0.00  0.97  0.00  0.00  0.00  0.00  0.00
  C213                    1.00   0.03  0.00  0.00  0.97  0.00  0.00  0.00  0.00  0.00
  C214                    1.00   0.03  0.00  0.00  0.97  0.00  0.00  0.00  0.00  0.00
  C215                    1.00   0.03  0.00  0.00  0.97  0.00  0.00  0.00  0.67  0.00
  C216                    1.00   0.03  0.00  0.00  0.97  0.00  0.00  0.00  0.00  0.00
  C217                    1.00   0.03  0.00  0.00  0.97  0.00  0.00  0.00  0.00  0.00
  C218                    1.00   0.03  0.00  0.00  0.97  0.00  0.00  0.00  0.00  0.00
  C219                    1.00   0.04  0.00  0.00  0.96  0.00  0.00  0.00  0.00  0.00
  C220                    1.00   0.04  0.00  0.00  0.96  0.00  0.00  0.00  0.00  0.00
  C221                    1.00   0.04  0.00  0.00  0.96  0.00  0.00  0.00  0.00  0.00
  C222                    1.00   0.04  0.00  0.00  0.96  0.00  0.00  0.00  0.00  0.00
  C223                    1.00   0.05  0.00  0.00  0.95  0.00  0.00  0.00  0.01  0.00
  C224                    1.00   0.05  0.00  0.00  0.95  0.00  0.00  0.00  0.00  0.00
  C225                    1.00   0.05  0.00  0.00  0.95  0.00  0.00  0.00  0.00  0.00
  C226                    1.00   0.05  0.00  0.00  0.95  0.00  0.00  0.00  0.00  0.00
  C227                    1.00   0.05  0.00  0.00  0.95  0.00  0.00  0.00  0.00  0.00
  C228                    1.00   0.06  0.00  0.00  0.94  0.00  0.00  0.00  0.00  0.00
  C229                    1.00   0.06  0.00  0.00  0.94  0.00  0.00  0.00  0.00  0.00
  C230                    1.00   0.06  0.00  0.00  0.94  0.00  0.00  0.00  0.00  0.00
  C231                    1.00   0.06  0.00  0.00  0.94  0.00  0.00  0.00  0.00  0.00
  C232                    1.00   0.07  0.00  0.00  0.93  0.00  0.00  0.00  0.00  0.00
  C233                    1.00   0.07  0.00  0.00  0.93  0.00  0.00  0.00  0.00  0.00
  C234                    1.00   0.07  0.00  0.00  0.93  0.00  0.00  0.00  0.00  0.00
  C235                    1.00   0.07  0.00  0.00  0.93  0.00  0.00  0.00  0.00  0.00
  C236                    1.00   0.08  0.00  0.00  0.92  0.00  0.00  0.00  0.00  0.00
  C237                    1.00   0.08  0.00  0.00  0.92  0.00  0.00  0.00  0.00  0.00
  C238                    1.00   0.08  0.00  0.00  0.92  0.00  0.00  0.00  0.00  0.00
  C239                    1.00   0.08  0.00  0.00  0.92  0.00  0.00  0.00  0.00  0.00
  C240                    1.00   0.08  0.00  0.00  0.92  0.00  0.00  0.00  0.00  0.00
  C241                    1.00   0.08  0.00  0.00  0.92  0.00  0.00  0.00  0.00  0.00
  C242                    1.00   0.08  0.00  0.00  0.92  0.00  0.00  0.00  0.00  0.00
  C243                    1.00   0.08  0.00  0.00  0.92  0.00  0.00  0.00  0.00  0.00
  C244                    1.00   0.09  0.00  0.00  0.91  0.00  0.00  0.00  0.00  0.00
  C245                    1.00   0.09  0.00  0.00  0.91  0.00  0.00  0.00  0.00  0.00
  C246                    1.00   0.10  0.00  0.00  0.90  0.00  0.00  0.00  0.16  0.00
  C247                    1.00   0.11  0.00  0.00  0.89  0.00  0.00  0.00  0.00  0.00
  C248                    1.00   0.12  0.00  0.00  0.88  0.00  0.00  0.00  0.00  0.00
  C249                    1.00   0.12  0.01  0.00  0.87  0.00  0.00  0.00  0.01  0.00
  C250                    1.00   0.12  0.00  0.00  0.88  0.00  0.00  0.00  0.00  0.00
  C251                    1.00   0.12  0.00  0.00  0.88  0.00  0.00  0.00  0.02  0.00
  C252                    1.00   0.13  0.00  0.00  0.87  0.00  0.00  0.00  0.00  0.00
  C253                    1.00   0.14  0.00  0.00  0.86  0.00  0.00  0.00  0.00  0.00
  C254                    1.00   0.16  0.00  0.00  0.84  0.00  0.00  0.00  0.00  0.00
  C255                    1.00   0.13  0.03  0.00  0.84  0.00  0.00  0.00  0.01  0.00
  C256                    1.00   0.12  0.01  0.00  0.87  0.00  0.00  0.00  0.00  0.00
  C257                    1.00   0.12  0.00  0.00  0.87  0.01  0.00  0.00  0.00  0.00
  C258                    1.00   0.12  0.01  0.00  0.86  0.00  0.00  0.00  0.01  0.00
  C259                    1.00   0.12  0.00  0.00  0.88  0.00  0.00  0.00  0.02  0.00
  C260                    1.00   0.14  0.02  0.00  0.85  0.00  0.00  0.00  0.00  0.00
  C261                    1.00   0.14  0.00  0.00  0.86  0.01  0.00  0.00  0.00  0.00
  C262                    1.00   0.14  0.00  0.00  0.86  0.00  0.00  0.00  0.00  0.00
  C263                    1.00   0.13  0.00  0.00  0.87  0.00  0.00  0.00  0.00  0.00
  C264                    1.00   0.13  0.00  0.00  0.87  0.00  0.00  0.00  0.01  0.00
  C265                    1.00   0.13  0.01  0.00  0.87  0.00  0.00  0.00  0.00  0.00
  C266                    1.00   0.14  0.00  0.00  0.86  0.00  0.00  0.00  0.00  0.00
  C267                    1.00   0.17  0.03  0.00  0.80  0.00  0.00  0.00  0.00  0.00
  C268                    1.00   0.16  0.01  0.00  0.83  0.00  0.00  0.00  0.03  0.00
  C269                    1.00   0.16  0.00  0.00  0.84  0.00  0.00  0.00  0.00  0.00
  C270                    1.00   0.13  0.06  0.00  0.82  0.00  0.00  0.00  0.03  0.00
  C271                    1.00   0.13  0.00  0.00  0.87  0.00  0.00  0.00  0.02  0.00
  C272                    1.00   0.14  0.01  0.00  0.85  0.00  0.00  0.00  0.00  0.00
  C273                    1.00   0.14  0.00  0.00  0.86  0.00  0.00  0.00  0.01  0.00
  C274                    1.00   0.14  0.00  0.00  0.86  0.00  0.00  0.00  0.00  0.00
  C275                    1.00   0.17  0.00  0.00  0.83  0.00  0.00  0.00  0.00  0.00
  C276                    1.00   0.20  0.00  0.00  0.80  0.00  0.00  0.00  0.00  0.00
  C277                    1.00   0.22  0.00  0.00  0.78  0.00  0.00  0.00  0.00  0.00
  C278                    1.00   0.23  0.00  0.00  0.77  0.00  0.00  0.00  0.00  0.00
  C279                    1.00   0.21  0.01  0.00  0.77  0.00  0.00  0.00  0.00  0.00
  C280                    1.00   0.15  0.06  0.00  0.79  0.00  0.00  0.00  0.00  0.00
  C281                    1.00   0.15  0.00  0.00  0.85  0.00  0.00  0.00  0.03  0.00
  C282                    1.00   0.16  0.00  0.00  0.84  0.00  0.00  0.00  0.03  0.00
  C283                    1.00   0.17  0.00  0.00  0.83  0.00  0.00  0.00  0.01  0.00
  C284                    1.00   0.18  0.00  0.00  0.82  0.00  0.00  0.00  0.00  0.00
  C285                    1.00   0.20  0.00  0.00  0.80  0.00  0.00  0.00  0.00  0.00
  C286                    1.00   0.22  0.00  0.00  0.78  0.00  0.00  0.00  0.00  0.00
  C287                    1.00   0.15  0.09  0.00  0.76  0.00  0.00  0.00  0.00  0.00
  C288                    1.00   0.15  0.00  0.00  0.85  0.00  0.00  0.00  0.00  0.00
  C289                    1.00   0.25  0.00  0.00  0.75  0.00  0.00  0.00  0.00  0.00
  C290                    1.00   0.14  0.10  0.00  0.75  0.00  0.00  0.00  0.00  0.00
  C291                    1.00   0.14  0.00  0.00  0.86  0.00  0.00  0.00  0.07  0.00
  C292                    1.00   0.17  0.00  0.00  0.83  0.00  0.00  0.00  0.02  0.00
  C293                    1.00   0.17  0.00  0.00  0.83  0.00  0.00  0.00  0.01  0.00
  C294                    1.00   0.18  0.00  0.00  0.82  0.00  0.00  0.00  0.00  0.00
  C295                    1.00   0.21  0.00  0.00  0.79  0.00  0.00  0.00  0.00  0.00
  C296                    1.00   0.16  0.07  0.00  0.77  0.00  0.00  0.00  0.00  0.00
  C297                    1.00   0.16  0.00  0.00  0.84  0.00  0.00  0.00  0.00  0.00
  C298                    1.00   0.25  0.00  0.00  0.75  0.00  0.00  0.00  0.00  0.00
  C299                    1.00   0.26  0.00  0.00  0.74  0.00  0.00  0.00  0.00  0.00
  C300                    1.00   0.26  0.00  0.00  0.74  0.00  0.00  0.00  0.00  0.00
  C301                    1.00   0.26  0.00  0.00  0.74  0.00  0.00  0.00  0.00  0.00
  C302                    1.00   0.00  0.00  0.00  1.00  0.00  0.00  0.00  0.00  0.00
  C303                    1.00   0.00  0.00  0.00  1.00  0.00  0.00  0.00  0.00  0.00
  C353                    1.00   0.17  0.00  0.00  0.00  0.00  0.00  0.83  0.00  0.00
  
  
  *************************
  Conduit Surcharge Summary
  *************************
  
  ----------------------------------------------------------------------------
                                                           Hours        Hours 
                         --------- Hours Full --------   Above Full   Capacity
  Conduit                Both Ends  Upstream  Dnstream   Normal Flow   Limited
  ----------------------------------------------------------------------------
  FID4498                     0.01      0.01      0.58      0.01         0.01
  FID4882                     0.01      0.01      1.72      0.01         0.01
  FID4914                     0.01      0.01      2.30      0.01         0.01
  C199                        0.01      0.01      0.01      8.53         0.01
  C200                        0.01      0.01      0.01      8.47         0.01
  
  
  ***************************
  Link Pollutant Load Summary
  ***************************
  
  --------------------------------------------------------------
                                 TSS            TP           TDP
  Link                            kg            kg            kg
  --------------------------------------------------------------
  FID1123                     11.125         0.031         0.020
  FID1139                    147.749         0.139         0.122
  FID1148                    271.546         0.242         0.235
  FID1149                    271.609         0.243         0.236
  FID3364                    309.484         0.254         0.273
  FID3671                      6.355         0.001         0.020
  FID3672                     99.942         0.050         0.071
  FID3762                    192.909         0.063         0.191
  FID3765                    303.397         0.143         0.320
  FID4112                    139.295         0.081         0.116
  FID4186                     13.926         0.002         0.024
  FID4187                     12.783         0.002         0.023
  FID4201                    101.567         0.046         0.079
  FID4202                     97.514         0.045         0.078
  FID4203                      0.000         0.000         0.000
  FID4299                     13.854         0.003         0.013
  FID4372                   1033.040         0.408         0.105
  FID4498                    127.210         0.026         0.037
  FID4806                    244.514         1.371         0.927
  FID4807                      0.000         0.000         0.001
  FID4882                      0.139         0.000         0.000
  FID4884                     62.557         0.122         0.080
  FID4914                     43.003         0.010         0.033
  FID4915                      7.259         0.004         0.005
  FID4916                      0.235         0.002         0.003
  FID4917                      0.041         0.001         0.002
  FID5307                     40.002         0.028         0.027
  FID5308                     19.056         0.005         0.012
  FID5312                     36.540         0.027         0.026
  FID5865                    509.928         0.218         0.565
  C9                         168.050         1.039         1.319
  C12                        166.388         1.022         1.297
  C13                        220.567         1.028         1.311
  C14                        145.131         0.676         0.866
  C52                        428.192         0.240         0.352
  C130                        46.042         0.037         0.029
  C131                        45.556         0.037         0.029
  C139                         0.004         0.000         0.000
  C191                       250.887         0.720         0.947
  C193                       249.555         0.700         0.921
  C194                       248.194         0.695         0.917
  C195                       247.865         0.692         0.915
  C196                       244.903         0.723         0.932
  C197                       551.059         0.833         1.231
  C198                       743.679         0.892         1.418
  C199                       743.961         0.889         1.414
  C200                       743.317         0.886         1.410
  C201                       744.071         0.881         1.403
  C202                       756.424         0.878         1.404
  C203                       756.343         0.874         1.399
  C204                       754.851         0.873         1.398
  C205                      1023.609         1.080         1.602
  C206                      1162.322         1.159         1.715
  C207                      1164.901         1.156         1.710
  C208                      1173.982         1.151         1.713
  C209                      1169.766         1.147         1.710
  C210                      1170.067         1.146         1.707
  C211                      1169.311         1.144         1.705
  C212                      1529.182         1.338         2.045
  C213                      1540.889         1.339         2.049
  C214                      1541.836         1.337         2.047
  C215                      1593.692         1.335         2.061
  C216                      1566.523         1.318         2.050
  C217                      1664.600         1.361         2.124
  C218                      2091.447         1.598         2.473
  C219                      2094.673         1.596         2.468
  C220                      2096.147         1.591         2.462
  C221                      2114.581         1.589         2.471
  C222                      2311.292         1.704         2.629
  C223                      2602.940         1.916         2.835
  C224                      2617.565         1.916         2.831
  C225                      2624.348         1.911         2.827
  C226                      2625.003         1.907         2.821
  C227                      2681.295         1.906         2.833
  C228                      2664.128         1.887         2.837
  C229                      2916.406         2.002         3.031
  C230                      2928.409         2.003         3.041
  C231                      2946.460         2.004         3.036
  C232                      2936.917         1.996         3.027
  C233                      2967.436         1.991         3.018
  C234                      2951.668         1.983         3.019
  C235                      2989.107         1.998         3.042
  C236                      4020.765         2.406         3.146
  C237                      4035.177         2.405         3.140
  C238                      4394.036         2.512         3.318
  C239                      4385.643         2.508         3.315
  C240                      4379.441         2.505         3.314
  C241                      4398.168         2.510         3.325
  C242                      4439.153         2.536         3.349
  C243                      4501.177         2.536         3.348
  C244                      4479.634         2.528         3.375
  C245                      4481.129         2.526         3.372
  C246                      4774.798         3.932         4.284
  C247                      4783.449         3.896         4.305
  C248                      4794.291         3.902         4.298
  C249                      4779.944         3.884         4.293
  C250                      4798.984         3.886         4.302
  C251                      4800.621         3.886         4.301
  C252                      5108.692         4.138         4.572
  C253                      5117.482         4.145         4.570
  C254                      5123.752         4.148         4.565
  C255                      5122.363         4.142         4.559
  C256                      5244.524         4.161         4.590
  C257                      5254.512         4.156         4.595
  C258                      5254.996         4.155         4.593
  C259                      5266.332         4.162         4.590
  C260                      5255.748         4.152         4.586
  C261                      5320.669         4.273         4.664
  C262                      5334.644         4.281         4.656
  C263                      5327.976         4.268         4.650
  C264                      5348.423         4.265         4.649
  C265                      5819.642         4.478         5.205
  C266                      5828.657         4.481         5.205
  C267                      5825.184         4.478         5.201
  C268                      5837.475         4.480         5.200
  C269                      5829.434         4.502         5.212
  C270                      5842.132         4.506         5.212
  C271                      5831.670         4.501         5.208
  C272                      5829.690         4.500         5.207
  C273                      6120.856         4.747         5.445
  C274                      6119.882         4.742         5.440
  C275                      6118.447         4.738         5.436
  C276                      6118.485         4.736         5.433
  C277                      6115.405         4.733         5.429
  C278                      6115.453         4.732         5.427
  C279                      6120.064         4.731         5.426
  C280                      6115.136         4.729         5.423
  C281                      6260.669         4.866         5.543
  C282                      6266.241         4.866         5.543
  C283                      6312.286         4.902         5.570
  C284                      6315.187         4.901         5.569
  C285                      6320.294         4.900         5.567
  C286                      6325.450         4.899         5.565
  C287                      6329.239         4.898         5.563
  C288                      6327.950         4.896         5.560
  C289                      6328.967         4.895         5.558
  C290                      6331.915         4.894         5.557
  C291                      6320.208         4.891         5.553
  C292                      6417.652         5.013         5.660
  C293                      6416.111         5.011         5.657
  C294                      6421.181         5.011         5.656
  C295                      6411.213         5.007         5.651
  C296                      6414.971         5.007         5.651
  C297                      6424.609         5.007         5.650
  C298                      6427.634         5.006         5.649
  C299                      6419.357         5.003         5.645
  C300                      6431.720         5.004         5.646
  C301                      6412.885         5.000         5.640
  C302                       167.459         1.034         1.313
  C303                       250.510         0.712         0.936
  C353                        81.323         0.120         0.105
  

  Analysis begun on:  Tue Oct 10 20:14:05 2017
  Analysis ended on:  Tue Oct 10 20:14:43 2017
  Total elapsed time: 00:00:38