
  EPA STORM WATER MANAGEMENT MODEL - VERSION 5.1 (Build 5.1.010)
  --------------------------------------------------------------

  WARNING 04: minimum elevation drop used for Conduit C199
  WARNING 04: minimum elevation drop used for Conduit C200
  WARNING 02: maximum depth increased for Node FID1955
  WARNING 02: maximum depth increased for Node FID1960
  WARNING 02: maximum depth increased for Node FID1965
  WARNING 02: maximum depth increased for Node FID1968
  WARNING 02: maximum depth increased for Node FID2244
  WARNING 02: maximum depth increased for Node FID2442
  WARNING 02: maximum depth increased for Node FID2446
  WARNING 02: maximum depth increased for Node FID5504
  WARNING 02: maximum depth increased for Node FID5527
  WARNING 02: maximum depth increased for Node AFID6926
  WARNING 02: maximum depth increased for Node AFID7376
  
  *********************************************************
  NOTE: The summary statistics displayed in this report are
  based on results found at every computational time step,  
  not just on results from each reporting time step.
  *********************************************************
  
  ****************
  Analysis Options
  ****************
  Flow Units ............... CMS
  Process Models:
    Rainfall/Runoff ........ YES
    RDII ................... NO
    Snowmelt ............... NO
    Groundwater ............ NO
    Flow Routing ........... YES
    Ponding Allowed ........ YES
    Water Quality .......... YES
  Infiltration Method ...... GREEN_AMPT
  Flow Routing Method ...... DYNWAVE
  Starting Date ............ MAY-06-2016 15:00:00
  Ending Date .............. MAY-07-2016 00:00:00
  Antecedent Dry Days ...... 0.0
  Report Time Step ......... 00:01:00
  Wet Time Step ............ 00:01:00
  Dry Time Step ............ 01:00:00
  Routing Time Step ........ 5.00 sec
  Variable Time Step ....... YES
  Maximum Trials ........... 8
  Number of Threads ........ 3
  Head Tolerance ........... 0.001500 m
  
  
  **************************        Volume         Depth
  Runoff Quantity Continuity     hectare-m            mm
  **************************     ---------       -------
  Total Precipitation ......         2.583         6.709
  Evaporation Loss .........         0.000         0.000
  Infiltration Loss ........         1.115         2.896
  Surface Runoff ...........         0.533         1.384
  Final Storage ............         0.935         2.429
  Continuity Error (%) .....        -0.002
  
  
  **************************           TSS            TP           TDP
  Runoff Quality Continuity             kg            kg            kg
  **************************    ----------    ----------    ----------
  Initial Buildup ..........         0.000         0.000         0.000
  Surface Buildup ..........     18529.220        10.002        16.274
  Wet Deposition ...........         0.000         0.000         0.000
  Sweeping Removal .........         0.000         0.000         0.000
  Infiltration Loss ........         0.000         0.000         0.000
  BMP Removal ..............         0.908         0.000         0.001
  Surface Runoff ...........      9077.497         3.846         7.201
  Remaining Buildup ........      9450.814         6.155         9.073
  Continuity Error (%) .....         0.000         0.000         0.000
  
  
  **************************        Volume        Volume
  Flow Routing Continuity        hectare-m      10^6 ltr
  **************************     ---------     ---------
  Dry Weather Inflow .......         0.000         0.000
  Wet Weather Inflow .......         0.533         5.330
  Groundwater Inflow .......         0.000         0.000
  RDII Inflow ..............         0.000         0.000
  External Inflow ..........         1.384        13.843
  External Outflow .........         1.274        12.740
  Flooding Loss ............         0.000         0.000
  Evaporation Loss .........         0.000         0.000
  Exfiltration Loss ........         0.000         0.000
  Initial Stored Volume ....         0.000         0.000
  Final Stored Volume ......         0.650         6.502
  Continuity Error (%) .....        -0.356
  
  
  **************************           TSS            TP           TDP
  Quality Routing Continuity            kg            kg            kg
  **************************    ----------    ----------    ----------
  Dry Weather Inflow .......         0.000         0.000         0.000
  Wet Weather Inflow .......      9039.409         3.776         7.192
  Groundwater Inflow .......         0.000         0.000         0.000
  RDII Inflow ..............         0.000         0.000         0.000
  External Inflow ..........       137.985         1.039         1.284
  External Outflow .........      9175.362         4.303         7.771
  Flooding Loss ............         0.000         0.000         0.000
  Exfiltration Loss ........         0.000         0.000         0.000
  Mass Reacted .............         0.000         0.000         0.000
  Initial Stored Mass ......         0.000         0.000         0.000
  Final Stored Mass ........        59.199         0.428         0.618
  Continuity Error (%) .....        -0.623         1.736         1.018
  
  
  *************************
  Highest Continuity Errors
  *************************
  Node FID2824 (4.23%)
  Node FID2827 (3.91%)
  Node J72 (1.90%)
  Node J81 (1.82%)
  Node J19 (1.77%)
  
  
  ***************************
  Time-Step Critical Elements
  ***************************
  Link C241 (90.58%)
  Link C14 (8.48%)
  
  
  ********************************
  Highest Flow Instability Indexes
  ********************************
  All links are stable.
  
  
  *************************
  Routing Time Step Summary
  *************************
  Minimum Time Step           :     0.12 sec
  Average Time Step           :     0.96 sec
  Maximum Time Step           :     5.00 sec
  Percent in Steady State     :     0.00
  Average Iterations per Step :     2.00
  Percent Not Converging      :     0.00
  
  
  ***************************
  Subcatchment Runoff Summary
  ***************************
  
  --------------------------------------------------------------------------------------------------------
                            Total      Total      Total      Total      Total       Total     Peak  Runoff
                           Precip      Runon       Evap      Infil     Runoff      Runoff   Runoff   Coeff
  Subcatchment                 mm         mm         mm         mm         mm    10^6 ltr      CMS
  --------------------------------------------------------------------------------------------------------
  S0                         5.84       0.00       0.00       4.91       0.20        0.00     0.00   0.034
  S1                         5.84       0.00       0.00       2.00       0.80        0.08     0.02   0.137
  S2                         6.35       0.00       0.00       1.17       1.37        0.24     0.09   0.216
  S3                         5.84       0.00       0.00       3.45       0.51        0.02     0.01   0.087
  S4                         5.84       0.00       0.00       2.24       0.76        0.08     0.04   0.130
  S6                         6.35       0.00       0.00      -0.15       1.66        0.03     0.01   0.261
  S7                         6.35       0.00       0.00       2.55       3.08        1.20     0.35   0.485
  S8                         6.35       0.00       0.00      -0.14       1.68        0.00     0.00   0.265
  S9                         6.35       0.00       0.00       0.96       1.45        0.00     0.00   0.229
  S10                        6.35       0.00       0.00       1.09       1.42        0.00     0.00   0.223
  S11                        6.35       0.00       0.00       4.76       0.43        0.00     0.00   0.068
  S12                        6.35       0.00       0.00       1.36       1.35        0.00     0.00   0.212
  S13                        6.35       0.00       0.00       1.66       1.24        0.09     0.04   0.196
  S14                        6.35       0.00       0.00       4.11       0.60        0.00     0.00   0.095
  S16                        6.35       0.00       0.00       2.90       1.93        0.11     0.03   0.304
  S17                        6.35       0.00       0.00       1.29       1.33        0.26     0.09   0.209
  S18                        6.35       0.00       0.00       0.53       1.57        0.00     0.00   0.248
  S19                        6.35       0.00       0.00       2.96       0.91        0.02     0.01   0.143
  S20                        6.35       0.00       0.00       1.49       1.31        0.01     0.01   0.207
  S21                        6.35       0.00       0.00       3.65       0.67        0.36     0.08   0.106
  S22                        6.35       0.00       0.00       0.88       1.47        0.00     0.00   0.232
  S23                        6.35       0.00       0.00       3.38       0.80        0.01     0.01   0.126
  S24                        6.35       0.00       0.00       3.14       0.86        0.02     0.01   0.136
  S25                        6.35       0.00       0.00       1.74       1.23        0.02     0.01   0.194
  S27                        6.35       0.00       0.00       2.15       1.13        0.01     0.01   0.178
  S28                        5.84       0.00       0.00       5.83       0.00        0.00     0.00   0.000
  S29                        5.84       0.00       0.00       5.79       0.01        0.00     0.00   0.002
  S30                        6.35       0.00       0.00       6.33       0.01        0.00     0.00   0.001
  S31                        6.35       0.00       0.00       6.34       0.00        0.00     0.00   0.000
  S32                        6.35       0.00       0.00       4.38       0.54        0.00     0.00   0.084
  S33                        6.35       0.00       0.00       0.67       1.53        0.02     0.01   0.240
  S34                        6.35       0.00       0.00       3.50       0.93        0.33     0.08   0.147
  S35                        6.35       0.00       0.00       3.11       0.87        0.00     0.00   0.137
  S36                        6.35       0.00       0.00       4.82       0.41        0.01     0.00   0.065
  S37                        6.35       0.00       0.00       1.05       1.43        0.01     0.01   0.224
  S39                        6.35       0.00       0.00       3.29       0.82        0.12     0.07   0.129
  S40                        6.35       0.00       0.00       4.08       0.61        0.01     0.01   0.096
  S41                        6.35       0.00       0.00       1.46       1.31        0.18     0.09   0.206
  S42                        6.35       0.00       0.00       1.92       1.18        0.12     0.06   0.186
  S43                        6.35       0.00       0.00       4.45       0.51        0.01     0.01   0.080
  S44                        6.35       0.00       0.00       2.00       1.15        0.26     0.11   0.182
  S45                        8.13       0.00       0.00       3.98       1.75        0.00     0.00   0.215
  S47                        8.13       0.00       0.00       2.73       2.26        0.10     0.13   0.278
  S48                        8.13       0.00       0.00       3.49       1.96        0.01     0.01   0.241
  S49                        8.13       0.00       0.00       2.91       2.17        0.41     0.29   0.266
  S51                        8.13       0.00       0.00       6.79       0.56        0.01     0.01   0.069
  S52                        8.13       0.00       0.00       3.28       2.03        0.14     0.17   0.250
  S53                        8.13       0.00       0.00       3.11       2.09        0.29     0.25   0.257
  S54                        8.13       0.00       0.00       4.33       1.58        0.15     0.08   0.194
  S55                        8.13       0.00       0.00       3.30       2.00        0.33     0.14   0.247
  S56                        8.13       0.00       0.00       5.53       1.09        0.00     0.00   0.134
  S57                        8.13       0.00       0.00       2.68       2.27        0.02     0.01   0.280
  S58                        8.13       0.00       0.00       3.69       1.85        0.08     0.04   0.228
  S59                        8.13       0.00       0.00       6.81       0.55        0.01     0.01   0.067
  S60                        8.13       0.00       0.00       5.41       1.13        0.03     0.02   0.139
  S61                        8.13       0.00       0.00       7.00       0.47        0.00     0.00   0.058
  S62                        8.13       0.00       0.00       6.43       0.71        0.02     0.02   0.088
  S63                        6.35       0.00       0.00       5.15       0.32        0.00     0.00   0.051
  S64                        6.35       0.00       0.00       2.24       1.11        0.02     0.01   0.175
  S65                        6.35       0.00       0.00       3.84       0.67        0.11     0.05   0.105
  
  
  ****************************
  Subcatchment Washoff Summary
  ****************************
  
  --------------------------------------------------------------
                                 TSS            TP           TDP
  Subcatchment                    kg            kg            kg
  --------------------------------------------------------------
  S0                           0.050         0.000         0.000
  S1                         183.202         0.074         0.195
  S2                         378.198         0.158         0.489
  S3                          51.439         0.020         0.057
  S4                         217.678         0.081         0.233
  S6                          22.859         0.015         0.069
  S7                         332.470         0.906         0.554
  S8                           1.085         0.000         0.000
  S9                           1.264         0.000         0.000
  S10                         12.912         0.004         0.004
  S11                          1.326         0.000         0.000
  S12                          0.753         0.000         0.000
  S13                        104.525         0.061         0.280
  S14                         18.681         0.005         0.004
  S16                        395.861         0.026         0.050
  S17                        440.392         0.177         0.525
  S18                          1.302         0.000         0.000
  S19                         60.450         0.015         0.021
  S20                         21.680         0.006         0.002
  S21                       1260.938         0.291         0.930
  S22                          8.379         0.003         0.000
  S23                         28.057         0.006         0.020
  S24                         48.088         0.019         0.057
  S25                         24.242         0.005         0.017
  S27                         22.757         0.007         0.003
  S28                          0.000         0.000         0.000
  S29                          0.000         0.000         0.000
  S30                          0.000         0.000         0.000
  S31                          0.000         0.000         0.000
  S32                          7.724         0.001         0.005
  S33                         43.334         0.014         0.018
  S34                        992.292         0.609         0.404
  S35                         13.245         0.004         0.002
  S36                         21.194         0.003         0.012
  S37                         18.830         0.005         0.005
  S39                        347.567         0.108         0.288
  S40                         44.294         0.007         0.025
  S41                        355.599         0.139         0.375
  S42                        294.183         0.097         0.227
  S43                         33.825         0.005         0.021
  S44                        630.112         0.209         0.498
  S45                          1.880         0.001         0.000
  S47                        116.202         0.038         0.069
  S48                         12.503         0.004         0.001
  S49                        473.131         0.157         0.369
  S51                         16.136         0.003         0.012
  S52                        174.282         0.058         0.136
  S53                        336.595         0.131         0.357
  S54                        246.777         0.068         0.132
  S55                        423.063         0.128         0.297
  S56                          0.104         0.000         0.001
  S57                         17.609         0.003         0.012
  S58                        122.932         0.040         0.075
  S59                         74.146         0.016         0.037
  S60                         42.495         0.009         0.033
  S61                         23.837         0.003         0.007
  S62                         36.642         0.008         0.030
  S63                         21.374         0.004         0.015
  S64                         20.829         0.004         0.019
  S65                        476.171         0.086         0.212
  --------------------------------------------------------------
  System                    9077.497         3.846         7.201
  
  
  ******************
  Node Depth Summary
  ******************
  
  ---------------------------------------------------------------------------------
                                 Average  Maximum  Maximum  Time of Max    Reported
                                   Depth    Depth      HGL   Occurrence   Max Depth
  Node                 Type       Meters   Meters   Meters  days hr:min      Meters
  ---------------------------------------------------------------------------------
  FID1936              JUNCTION     0.15     0.38  1376.68     0  04:05        0.12
  FID1955              JUNCTION     0.16     0.32  1376.24     0  04:15        0.10
  FID1960              JUNCTION     0.15     0.28  1376.14     0  04:15        0.08
  FID1965              JUNCTION     0.15     0.26  1376.56     0  04:15        0.08
  FID1968              JUNCTION     0.14     0.21  1376.61     0  04:15        0.06
  FID2239              JUNCTION     0.15     0.27  1374.78     0  04:20        0.08
  FID2241              JUNCTION     0.13     0.19  1373.32     0  04:20        0.06
  FID2242              JUNCTION     0.14     0.20  1374.24     0  04:20        0.06
  FID2244              JUNCTION     0.13     0.19  1374.55     0  04:20        0.06
  FID2440              JUNCTION     0.42     0.59  1374.84     0  04:31        0.18
  FID2442              JUNCTION     0.00     0.00  1375.27     0  00:00        0.00
  FID2446              JUNCTION     0.16     0.53  1376.33     0  04:05        0.16
  FID2447              JUNCTION     0.15     0.44  1376.14     0  04:05        0.13
  FID2455              JUNCTION     0.33     0.53  1374.52     0  04:35        0.16
  FID2711              JUNCTION     0.13     0.20  1370.38     0  04:35        0.06
  FID2719              JUNCTION     0.16     0.29  1370.39     0  04:35        0.09
  FID2720              JUNCTION     0.16     0.29  1370.49     0  04:35        0.09
  FID2824              JUNCTION     0.12     0.18  1371.46     0  04:20        0.05
  FID2827              JUNCTION     0.13     0.23  1371.53     0  04:20        0.07
  FID2828              JUNCTION     0.14     0.23  1371.55     0  04:20        0.07
  FID2832              JUNCTION     0.16     0.26  1370.86     0  04:20        0.08
  FID2833              JUNCTION     0.21     0.39  1371.01     0  04:20        0.12
  FID2839              JUNCTION     0.19     0.37  1371.57     0  04:10        0.11
  FID2873              JUNCTION     0.15     0.25  1370.95     0  04:20        0.07
  FID2964              JUNCTION     0.16     0.27  1371.05     0  04:10        0.08
  FID2965              JUNCTION     0.42     0.65  1370.92     0  05:28        0.20
  FID4584              JUNCTION     0.10     0.21  1371.55     0  04:20        0.06
  FID5068              JUNCTION     0.13     0.19  1375.57     0  04:20        0.06
  FID5072              JUNCTION     0.51     0.73  1374.02     0  04:48        0.22
  FID5140              JUNCTION     0.15     0.24  1373.46     0  03:30        0.07
  FID5435              JUNCTION     0.16     0.25  1373.00     0  04:05        0.08
  FID5437              JUNCTION     0.12     0.17  1373.12     0  04:20        0.05
  FID5503              JUNCTION     0.11     0.16  1371.49     0  04:20        0.05
  FID5504              JUNCTION     0.15     0.22  1371.58     0  04:20        0.07
  FID5527              JUNCTION     0.14     0.20  1372.70     0  04:20        0.06
  FID5568              JUNCTION     0.48     0.70  1373.10     0  04:59        0.21
  FID5784              JUNCTION     0.48     0.71  1372.71     0  05:04        0.22
  FID5785              JUNCTION     0.14     0.23  1374.66     0  04:21        0.07
  AFID6926             JUNCTION     0.15     0.21  1370.01     0  04:45        0.06
  AFID7360             JUNCTION     0.47     0.73  1370.86     0  05:30        0.22
  AFID7363             JUNCTION     0.46     0.71  1370.88     0  05:29        0.22
  AFID7376             JUNCTION     0.18     0.32  1371.55     0  04:20        0.10
  AFID7377             JUNCTION     0.38     0.58  1371.26     0  05:20        0.18
  AFID7705             JUNCTION     0.53     0.62  1375.59     0  04:30        0.19
  AFID7706             JUNCTION     0.59     0.68  1375.60     0  04:30        0.21
  AFID7792             JUNCTION     0.17     0.32  1375.12     0  04:20        0.10
  AFID8223             JUNCTION     0.48     0.71  1372.71     0  05:04        0.22
  J1                   JUNCTION     0.77     0.80  1375.79     0  04:31        0.24
  FID4901              JUNCTION     0.50     0.57  1375.64     0  04:30        0.17
  J9                   JUNCTION     0.66     0.68  1375.78     0  04:31        0.21
  J11                  JUNCTION     0.51     0.54  1375.74     0  04:31        0.16
  J12                  JUNCTION     0.50     0.55  1375.67     0  04:31        0.17
  J13                  JUNCTION     0.49     0.56  1375.64     0  04:31        0.17
  FID4902              JUNCTION     0.51     0.59  1375.63     0  04:30        0.18
  J14                  JUNCTION     0.41     0.53  1375.44     0  04:22        0.16
  J15                  JUNCTION     0.38     0.53  1375.19     0  04:24        0.16
  J16                  JUNCTION     0.38     0.54  1375.18     0  04:25        0.16
  FID2449              JUNCTION     0.43     0.60  1374.92     0  04:31        0.18
  J17                  JUNCTION     0.32     0.52  1374.49     0  04:35        0.16
  J19                  JUNCTION     0.45     0.68  1374.22     0  04:44        0.21
  FID5069              JUNCTION     0.53     0.75  1374.01     0  04:48        0.23
  FID5139              JUNCTION     0.49     0.71  1373.06     0  05:00        0.22
  J24                  JUNCTION     0.49     0.71  1373.08     0  05:00        0.22
  FID4984              JUNCTION     0.50     0.73  1372.69     0  05:04        0.22
  FID2669              JUNCTION     0.34     0.58  1369.02     0  04:40        0.18
  FID2712              JUNCTION     0.36     0.61  1369.80     0  04:36        0.18
  FID2718              JUNCTION     0.37     0.61  1369.86     0  04:36        0.19
  FID2838              JUNCTION     0.56     0.85  1370.79     0  04:30        0.26
  FID2825              JUNCTION     0.60     0.90  1370.81     0  04:30        0.27
  FID2823              JUNCTION     0.64     0.95  1370.82     0  04:31        0.29
  FID5505              JUNCTION     0.53     0.82  1370.84     0  04:32        0.25
  FID5436              JUNCTION     0.50     0.71  1372.03     0  05:11        0.22
  FID5438              JUNCTION     0.44     0.64  1372.07     0  05:11        0.19
  J49                  JUNCTION     0.53     0.60  1375.63     0  04:30        0.18
  J50                  JUNCTION     0.56     0.65  1375.61     0  04:30        0.20
  J51                  JUNCTION     0.61     0.71  1375.60     0  04:30        0.21
  J52                  JUNCTION     0.63     0.72  1375.60     0  04:30        0.22
  J53                  JUNCTION     0.41     0.52  1375.44     0  04:22        0.16
  J54                  JUNCTION     0.41     0.52  1375.47     0  04:23        0.16
  J55                  JUNCTION     0.46     0.55  1375.58     0  04:30        0.17
  J56                  JUNCTION     0.44     0.53  1375.56     0  04:30        0.16
  J57                  JUNCTION     0.42     0.51  1375.53     0  04:28        0.16
  J58                  JUNCTION     0.41     0.51  1375.49     0  04:25        0.16
  FID1935              JUNCTION     0.41     0.53  1375.42     0  04:22        0.16
  J59                  JUNCTION     0.41     0.53  1375.40     0  04:23        0.16
  J60                  JUNCTION     0.40     0.52  1375.35     0  04:24        0.16
  J61                  JUNCTION     0.38     0.51  1375.28     0  04:25        0.16
  J62                  JUNCTION     0.37     0.51  1375.26     0  04:25        0.15
  J63                  JUNCTION     0.39     0.53  1375.22     0  04:25        0.16
  J64                  JUNCTION     0.37     0.53  1375.14     0  04:26        0.16
  J65                  JUNCTION     0.34     0.50  1375.08     0  04:27        0.15
  J66                  JUNCTION     0.42     0.59  1374.80     0  04:32        0.18
  J67                  JUNCTION     0.41     0.58  1374.73     0  04:33        0.18
  J68                  JUNCTION     0.39     0.56  1374.63     0  04:34        0.17
  J69                  JUNCTION     0.52     0.74  1374.47     0  04:36        0.22
  J70                  JUNCTION     0.51     0.72  1374.37     0  04:40        0.22
  J71                  JUNCTION     0.49     0.70  1374.30     0  04:42        0.21
  J72                  JUNCTION     0.52     0.73  1374.08     0  04:47        0.22
  J73                  JUNCTION     0.53     0.75  1373.98     0  04:49        0.23
  J74                  JUNCTION     0.54     0.76  1373.74     0  04:52        0.23
  J75                  JUNCTION     0.54     0.76  1373.60     0  04:53        0.23
  J76                  JUNCTION     0.49     0.71  1373.05     0  05:00        0.22
  J77                  JUNCTION     0.49     0.71  1372.91     0  05:01        0.22
  J78                  JUNCTION     0.49     0.71  1372.78     0  05:03        0.22
  J79                  JUNCTION     0.49     0.71  1372.72     0  05:04        0.22
  J80                  JUNCTION     0.41     0.61  1372.10     0  05:10        0.19
  J81                  JUNCTION     0.48     0.68  1371.68     0  05:17        0.21
  J82                  JUNCTION     0.47     0.67  1371.60     0  05:17        0.20
  J83                  JUNCTION     0.40     0.61  1371.41     0  05:19        0.19
  J84                  JUNCTION     0.36     0.55  1371.18     0  05:21        0.17
  J85                  JUNCTION     0.36     0.56  1371.08     0  05:23        0.17
  J86                  JUNCTION     0.38     0.60  1370.97     0  05:26        0.18
  J87                  JUNCTION     0.45     0.70  1370.89     0  05:29        0.21
  J88                  JUNCTION     0.52     0.80  1370.84     0  04:32        0.24
  J89                  JUNCTION     0.56     0.85  1370.84     0  04:32        0.26
  J90                  JUNCTION     0.53     0.82  1370.77     0  04:30        0.25
  J91                  JUNCTION     0.52     0.82  1370.71     0  04:30        0.25
  J92                  JUNCTION     0.52     0.82  1370.66     0  04:31        0.25
  J93                  JUNCTION     0.51     0.83  1370.55     0  04:31        0.25
  J94                  JUNCTION     0.51     0.83  1370.48     0  04:31        0.25
  J95                  JUNCTION     0.51     0.83  1370.46     0  04:31        0.25
  J96                  JUNCTION     0.51     0.82  1370.37     0  04:32        0.25
  J97                  JUNCTION     0.50     0.80  1370.30     0  04:33        0.24
  J98                  JUNCTION     0.48     0.79  1370.23     0  04:34        0.24
  J99                  JUNCTION     0.47     0.76  1370.16     0  04:34        0.23
  J100                 JUNCTION     0.45     0.74  1370.10     0  04:35        0.23
  J101                 JUNCTION     0.43     0.71  1370.03     0  04:36        0.22
  J102                 JUNCTION     0.37     0.61  1369.88     0  04:36        0.19
  J103                 JUNCTION     0.36     0.61  1369.83     0  04:36        0.19
  J104                 JUNCTION     0.36     0.60  1369.76     0  04:36        0.18
  J105                 JUNCTION     0.35     0.59  1369.71     0  04:37        0.18
  J106                 JUNCTION     0.34     0.57  1369.65     0  04:37        0.17
  J107                 JUNCTION     0.34     0.57  1369.51     0  04:38        0.17
  J108                 JUNCTION     0.34     0.57  1369.37     0  04:38        0.17
  J109                 JUNCTION     0.34     0.57  1369.26     0  04:39        0.17
  J110                 JUNCTION     0.34     0.57  1369.16     0  04:39        0.17
  J111                 JUNCTION     0.34     0.58  1369.06     0  04:40        0.18
  J112                 JUNCTION     0.34     0.58  1368.90     0  04:41        0.18
  J113                 JUNCTION     0.34     0.58  1368.80     0  04:41        0.18
  J114                 JUNCTION     0.34     0.58  1368.69     0  04:41        0.18
  J115                 JUNCTION     0.34     0.58  1368.63     0  04:42        0.18
  J116                 JUNCTION     0.34     0.58  1368.56     0  04:42        0.18
  J117                 JUNCTION     0.34     0.58  1368.46     0  04:42        0.18
  J118                 JUNCTION     0.34     0.58  1368.36     0  04:43        0.18
  J119                 JUNCTION     0.35     0.59  1368.29     0  04:43        0.18
  J120                 JUNCTION     0.37     0.60  1368.20     0  04:43        0.18
  FID2451              JUNCTION     0.41     0.59  1374.87     0  04:32        0.18
  J121                 JUNCTION     0.38     0.58  1371.33     0  05:20        0.18
  J122                 JUNCTION     0.38     0.58  1371.30     0  05:20        0.18
  FID3706              JUNCTION     0.52     0.83  1370.56     0  04:31        0.25
  FID2831              JUNCTION     0.51     0.83  1370.45     0  04:31        0.25
  FID2689              OUTFALL      0.21     0.36  1367.86     0  04:43        0.11
  
  
  *******************
  Node Inflow Summary
  *******************
  
  -------------------------------------------------------------------------------------------------
                                  Maximum  Maximum                  Lateral       Total        Flow
                                  Lateral    Total  Time of Max      Inflow      Inflow     Balance
                                   Inflow   Inflow   Occurrence      Volume      Volume       Error
  Node                 Type           CMS      CMS  days hr:min    10^6 ltr    10^6 ltr     Percent
  -------------------------------------------------------------------------------------------------
  FID1936              JUNCTION     0.174    0.174     0  04:05       0.136       0.136       0.127
  FID1955              JUNCTION     0.144    0.144     0  04:15       0.327       0.327       0.055
  FID1960              JUNCTION     0.077    0.077     0  04:15       0.149       0.149       0.117
  FID1965              JUNCTION     0.039    0.039     0  04:15      0.0753      0.0753       0.234
  FID1968              JUNCTION     0.012    0.012     0  04:15      0.0227      0.0227       0.774
  FID2239              JUNCTION     0.010    0.010     0  04:20      0.0165      0.0165       2.119
  FID2241              JUNCTION     0.000    0.007     0  04:20           0      0.0154       1.141
  FID2242              JUNCTION     0.007    0.007     0  04:20      0.0155      0.0155       1.185
  FID2244              JUNCTION     0.005    0.005     0  04:20     0.00606     0.00606       2.957
  FID2440              JUNCTION     0.000    0.884     0  04:30           0        13.5       0.313
  FID2442              JUNCTION     0.000    0.000     0  00:00           0           0       0.000 ltr
  FID2446              JUNCTION     0.134    0.134     0  04:05      0.0963      0.0963       1.145
  FID2447              JUNCTION     0.000    0.132     0  04:05           0      0.0952      -0.436
  FID2455              JUNCTION     0.058    0.901     0  04:32        0.12        13.4       0.312
  FID2711              JUNCTION     0.000    0.011     0  04:35           0      0.0161       1.068
  FID2719              JUNCTION     0.041    0.041     0  04:35      0.0757      0.0757       0.246
  FID2720              JUNCTION     0.012    0.012     0  04:35      0.0164      0.0164       1.384
  FID2824              JUNCTION     0.000    0.003     0  04:20    0.000276     0.00394       4.418
  FID2827              JUNCTION     0.000    0.003     0  04:20    0.000313     0.00381       4.071
  FID2828              JUNCTION     0.003    0.003     0  04:20     0.00369     0.00369       5.579
  FID2832              JUNCTION     0.000    0.093     0  04:20           0       0.236       0.084
  FID2833              JUNCTION     0.094    0.094     0  04:20       0.236       0.236       0.119
  FID2839              JUNCTION     0.349    0.349     0  04:10         1.2         1.2       0.036
  FID2873              JUNCTION     0.013    0.013     0  04:20      0.0311      0.0311       0.850
  FID2964              JUNCTION     0.034    0.034     0  04:10       0.108       0.108       0.161
  FID2965              JUNCTION     0.000    0.893     0  05:22           0        12.3       0.478
  FID4584              JUNCTION     0.000    0.002     0  04:18           0     0.00032      72.076
  FID5068              JUNCTION     0.006    0.006     0  04:20     0.00745     0.00745       2.394
  FID5072              JUNCTION     0.069    0.896     0  04:45       0.121        12.9       0.293
  FID5140              JUNCTION     0.080    0.080     0  03:30        0.33        0.33       0.043
  FID5435              JUNCTION     0.084    0.084     0  04:05        0.36        0.36       0.051
  FID5437              JUNCTION     0.002    0.002     0  04:20     0.00203     0.00203       9.381
  FID5503              JUNCTION     0.000    0.000     0  04:20    0.000298    0.000298     139.550
  FID5504              JUNCTION     0.038    0.038     0  04:20      0.0939      0.0939       0.222
  FID5527              JUNCTION     0.011    0.011     0  04:20      0.0196      0.0196       0.903
  FID5568              JUNCTION     0.003    0.886     0  04:54     0.00291        12.5       1.055
  FID5784              JUNCTION     0.000    0.892     0  05:02           0        12.6       0.144
  FID5785              JUNCTION     0.000    0.010     0  04:20           0      0.0162       1.297
  AFID6926             JUNCTION     0.023    0.023     0  04:45      0.0784      0.0784       0.230
  AFID7360             JUNCTION     0.000    0.889     0  05:24    0.000179        12.2       0.345
  AFID7363             JUNCTION     0.000    0.890     0  05:24           0        12.2       0.166
  AFID7376             JUNCTION     0.089    0.089     0  04:20       0.255       0.256       0.101
  AFID7377             JUNCTION     0.000    0.896     0  05:18           0        12.4       0.173
  AFID7705             JUNCTION     0.000    0.615     0  04:30           0        13.6       0.319
  AFID7706             JUNCTION     0.000    0.569     0  04:31           0        13.4       0.300
  AFID7792             JUNCTION     0.105    0.105     0  04:20        0.26        0.26       0.076
  AFID8223             JUNCTION     0.000    0.891     0  05:02           0        12.6       0.033
  J1                   JUNCTION     0.668    0.668     0  04:15          21          21       0.173
  FID4901              JUNCTION     0.000    0.463     0  04:30           0        13.6       0.278
  J9                   JUNCTION     0.000    0.666     0  04:15           0          21       0.355
  J11                  JUNCTION     0.000    0.663     0  04:15           0        20.9       0.637
  J12                  JUNCTION     0.007    0.664     0  04:30      0.0139        20.8       0.697
  J13                  JUNCTION    -0.220    0.670     0  04:38       -7.13        20.6      -0.210
  FID4902              JUNCTION     0.000    0.470     0  04:30           0        13.6       0.438
  J14                  JUNCTION     0.249    0.694     0  04:20       0.291        13.5       0.240
  J15                  JUNCTION     0.286    0.846     0  04:22       0.406        13.7       0.204
  J16                  JUNCTION     0.009    0.843     0  04:22     0.00564        13.7       0.205
  FID2449              JUNCTION     0.001    0.812     0  04:26    0.000813        13.4       1.626
  J17                  JUNCTION     0.093    0.950     0  04:30       0.178        13.6       0.159
  J19                  JUNCTION     0.013    0.912     0  04:36      0.0156        13.3       1.802
  FID5069              JUNCTION     0.000    0.895     0  04:45           0        12.9       0.260
  FID5139              JUNCTION     0.000    0.890     0  04:57           0        12.7       0.081
  J24                  JUNCTION     0.012    0.881     0  04:58      0.0177        12.4       0.117
  FID4984              JUNCTION     0.000    0.892     0  05:02           0        12.6       1.215
  FID2669              JUNCTION     0.000    1.062     0  04:39           0        12.9       0.115
  FID2712              JUNCTION     0.000    1.051     0  04:35           0          13       0.136
  FID2718              JUNCTION     0.000    1.043     0  04:35           0          13       0.099
  FID2838              JUNCTION     0.000    0.972     0  04:20           0        13.2       0.274
  FID2825              JUNCTION     0.000    0.886     0  05:29           0        12.1       0.465
  FID2823              JUNCTION     0.000    0.887     0  05:27           0        12.1       0.784
  FID5505              JUNCTION     0.000    0.889     0  05:26           0        12.2       0.215
  FID5436              JUNCTION     0.000    0.895     0  05:08           0        12.7       1.290
  FID5438              JUNCTION     0.000    0.887     0  05:08           0        12.4       0.222
  J49                  JUNCTION     0.000    0.470     0  04:36           0        13.5       0.709
  J50                  JUNCTION     0.000    0.475     0  04:37    0.000168        13.4       1.223
  J51                  JUNCTION     0.000    0.485     0  04:37           0        13.3       0.967
  J52                  JUNCTION     0.000    0.492     0  04:39           0        13.2       0.285
  J53                  JUNCTION     0.000    0.622     0  04:30           0        13.2       0.268
  J54                  JUNCTION     0.000    0.620     0  04:30           0        13.3       0.397
  J55                  JUNCTION     0.000    0.615     0  04:30           0        13.5       0.368
  J56                  JUNCTION     0.000    0.615     0  04:30           0        13.5       0.401
  J57                  JUNCTION     0.000    0.615     0  04:30           0        13.4       0.506
  J58                  JUNCTION     0.002    0.617     0  04:31     0.00408        13.3       0.542
  FID1935              JUNCTION     0.000    0.780     0  04:20           0        13.6       0.311
  J59                  JUNCTION     0.000    0.766     0  04:20           0        13.5       0.444
  J60                  JUNCTION     0.009    0.746     0  04:20     0.00567        13.5       0.694
  J61                  JUNCTION     0.000    0.719     0  04:23           0        13.4       0.468
  J62                  JUNCTION     0.000    0.715     0  04:25           0        13.3       0.212
  J63                  JUNCTION     0.000    0.716     0  04:26           0        13.3       0.215
  J64                  JUNCTION     0.000    0.838     0  04:22           0        13.6       0.216
  J65                  JUNCTION     0.025    0.838     0  04:22      0.0182        13.6       1.262
  J66                  JUNCTION     0.000    0.881     0  04:30           0        13.5       0.393
  J67                  JUNCTION     0.000    0.877     0  04:30           0        13.5       0.582
  J68                  JUNCTION     0.008    0.873     0  04:32     0.00985        13.4       0.620
  J69                  JUNCTION     0.000    0.946     0  04:31           0        13.5       0.635
  J70                  JUNCTION     0.004    0.937     0  04:32     0.00496        13.5       0.817
  J71                  JUNCTION     0.000    0.922     0  04:34           0        13.3       0.599
  J72                  JUNCTION     0.008    0.894     0  04:42      0.0134        13.1       1.938
  J73                  JUNCTION     0.000    0.894     0  04:46           0        12.9       0.602
  J74                  JUNCTION     0.000    0.892     0  04:48           0        12.8       0.881
  J75                  JUNCTION     0.005    0.888     0  04:51     0.00516        12.7       1.366
  J76                  JUNCTION     0.000    0.889     0  04:57           0        12.7       0.326
  J77                  JUNCTION     0.046    0.896     0  04:58       0.112        12.8       0.602
  J78                  JUNCTION     0.000    0.893     0  05:00           0        12.7       0.450
  J79                  JUNCTION     0.000    0.892     0  05:01           0        12.7       0.164
  J80                  JUNCTION     0.010    0.892     0  05:05      0.0131        12.5       1.034
  J81                  JUNCTION     0.002    0.892     0  05:11      0.0023        12.6       1.849
  J82                  JUNCTION     0.000    0.887     0  05:15           0        12.3       0.740
  J83                  JUNCTION     0.000    0.886     0  05:17           0        12.3       0.583
  J84                  JUNCTION     0.000    0.896     0  05:19           0        12.4       0.310
  J85                  JUNCTION     0.000    0.895     0  05:20           0        12.3       0.581
  J86                  JUNCTION     0.000    0.893     0  05:21           0        12.3       0.611
  J87                  JUNCTION     0.003    0.891     0  05:24     0.00354        12.3       0.265
  J88                  JUNCTION     0.000    0.888     0  05:25           0        12.2       0.387
  J89                  JUNCTION     0.000    0.889     0  05:26           0        12.2       0.607
  J90                  JUNCTION     0.000    0.966     0  04:20           0        13.1       0.205
  J91                  JUNCTION     0.000    0.959     0  04:20           0        13.1       0.276
  J92                  JUNCTION     0.000    0.949     0  04:20    1.61e-06        13.1       0.351
  J93                  JUNCTION     0.000    0.945     0  04:31           0          13       0.191
  J94                  JUNCTION     0.000    0.945     0  04:32     2.7e-06          13       0.209
  J95                  JUNCTION     0.000    0.945     0  04:32           0          13       0.080
  J96                  JUNCTION     0.000    1.014     0  04:30           0        13.2       0.301
  J97                  JUNCTION     0.000    1.012     0  04:31           0        13.1       0.256
  J98                  JUNCTION     0.000    1.011     0  04:32           0        13.1       0.224
  J99                  JUNCTION     0.000    1.010     0  04:32           0        13.1       0.189
  J100                 JUNCTION     0.000    1.009     0  04:33           0          13       0.160
  J101                 JUNCTION     0.000    1.008     0  04:33           0          13       0.186
  J102                 JUNCTION     0.000    1.006     0  04:33           0          13       0.149
  J103                 JUNCTION     0.000    1.041     0  04:35           0          13       0.112
  J104                 JUNCTION     0.000    1.050     0  04:35           0          13       0.146
  J105                 JUNCTION     0.000    1.049     0  04:36           0          13       0.180
  J106                 JUNCTION     0.000    1.048     0  04:36           0          13       0.202
  J107                 JUNCTION     0.000    1.047     0  04:37           0        12.9       0.207
  J108                 JUNCTION     0.000    1.045     0  04:37    7.56e-06        12.9       0.188
  J109                 JUNCTION     0.000    1.044     0  04:38           0        12.9       0.159
  J110                 JUNCTION     0.000    1.044     0  04:38           0        12.9       0.156
  J111                 JUNCTION     0.000    1.043     0  04:39    6.53e-05        12.9       0.114
  J112                 JUNCTION     0.000    1.061     0  04:40           0        12.9       0.162
  J113                 JUNCTION     0.000    1.061     0  04:40           0        12.9       0.158
  J114                 JUNCTION     0.000    1.060     0  04:41           0        12.9       0.133
  J115                 JUNCTION     0.000    1.060     0  04:41           0        12.8       0.099
  J116                 JUNCTION     0.000    1.059     0  04:41    2.03e-06        12.8       0.132
  J117                 JUNCTION     0.000    1.059     0  04:42           0        12.8       0.163
  J118                 JUNCTION     0.000    1.059     0  04:42           0        12.8       0.141
  J119                 JUNCTION     0.000    1.058     0  04:42           0        12.8       0.141
  J120                 JUNCTION     0.000    1.058     0  04:43           0        12.8       0.173
  FID2451              JUNCTION     0.000    0.803     0  04:28           0        13.3       0.304
  J121                 JUNCTION     0.006    0.886     0  05:19     0.00693        12.2       0.171
  J122                 JUNCTION     0.000    0.885     0  05:19    0.000315        12.2       0.147
  FID3706              JUNCTION     0.000    0.950     0  04:21           0          13       0.274
  FID2831              JUNCTION     0.000    1.016     0  04:30           0        13.2       0.187
  FID2689              OUTFALL      0.000    1.058     0  04:43           0        12.7       0.000
  
  
  **********************
  Node Surcharge Summary
  **********************
  
  No nodes were surcharged.
  
  
  *********************
  Node Flooding Summary
  *********************
  
  No nodes were flooded.
  
  
  ***********************
  Outfall Loading Summary
  ***********************
  
  -----------------------------------------------------------------------------------------------------
                         Flow       Avg       Max       Total         Total         Total         Total
                         Freq      Flow      Flow      Volume           TSS            TP           TDP
  Outfall Node           Pcnt       CMS       CMS    10^6 ltr            kg            kg            kg
  -----------------------------------------------------------------------------------------------------
  FID2689               71.83     0.710     1.058      12.740      9089.381         3.949         7.325
  -----------------------------------------------------------------------------------------------------
  System                71.83     0.710     1.058      12.740      9089.381         3.949         7.325
  
  
  ********************
  Link Flow Summary
  ********************
  
  -----------------------------------------------------------------------------
                                 Maximum  Time of Max   Maximum    Max/    Max/
                                  |Flow|   Occurrence   |Veloc|    Full    Full
  Link                 Type          CMS  days hr:min     m/sec    Flow   Depth
  -----------------------------------------------------------------------------
  FID1123              CONDUIT     0.013     0  04:20      0.46    0.21    0.42
  FID1139              CONDUIT     0.040     0  04:35      1.07    0.28    0.36
  FID1148              CONDUIT     0.093     0  04:20      0.84    0.23    0.23
  FID1149              CONDUIT     0.093     0  04:20      1.28    0.03    0.26
  FID3364              CONDUIT     0.087     0  04:20      0.56    0.07    0.29
  FID3671              CONDUIT     0.012     0  04:15      1.18    0.09    0.20
  FID3672              CONDUIT     0.039     0  04:15      1.64    0.28    0.36
  FID3762              CONDUIT     0.077     0  04:15      1.38    0.23    0.50
  FID3765              CONDUIT     0.144     0  04:15      2.13    0.40    0.57
  FID4112              CONDUIT     0.173     0  04:05      1.75    0.30    0.37
  FID4186              CONDUIT     0.007     0  04:20      0.85    0.04    0.13
  FID4187              CONDUIT     0.007     0  04:20      1.34    0.02    0.09
  FID4201              CONDUIT     0.132     0  04:05      1.25    1.33    0.87
  FID4202              CONDUIT     0.130     0  04:05      1.47    0.93    0.73
  FID4203              CONDUIT     0.000     0  00:00      0.00    0.00    0.22
  FID4299              CONDUIT     0.006     0  04:20      0.91    0.02    0.10
  FID4372              CONDUIT     0.080     0  03:30      0.60    0.01    0.28
  FID4498              CONDUIT     0.034     0  04:10      0.33    0.16    0.63
  FID4806              CONDUIT     0.084     0  04:05      2.11    0.03    0.11
  FID4807              CONDUIT     0.001     0  04:20      0.69    0.01    0.07
  FID4882              CONDUIT     0.000     0  04:20      0.02    0.00    0.52
  FID4884              CONDUIT     0.038     0  04:20      1.61    0.01    0.08
  FID4914              CONDUIT     0.010     0  04:20      0.16    0.04    0.57
  FID4915              CONDUIT     0.003     0  04:20      0.19    0.09    0.20
  FID4916              CONDUIT     0.003     0  04:20      0.29    0.08    0.15
  FID4917              CONDUIT     0.003     0  04:20      0.07    0.01    0.43
  FID5307              CONDUIT     0.010     0  04:20      0.44    0.17    0.25
  FID5308              CONDUIT     0.005     0  04:20      1.13    0.03    0.11
  FID5312              CONDUIT     0.008     0  04:21      0.57    0.05    0.15
  FID5865              CONDUIT     0.349     0  04:10      3.33    0.17    0.28
  C9                   CHANNEL     0.666     0  04:15      0.58    0.09    0.52
  C12                  CHANNEL     0.662     0  04:37      0.39    0.39    0.63
  C13                  CHANNEL     0.670     0  04:38      0.53    0.40    0.65
  C14                  CHANNEL     0.453     0  04:39      0.53    0.27    0.66
  C52                  CONDUIT     0.105     0  04:20      0.78    0.16    0.48
  C130                 CONDUIT     0.011     0  04:35      0.41    0.20    0.22
  C131                 CONDUIT     0.011     0  04:35      0.88    0.02    0.28
  C139                 CONDUIT     0.002     0  04:18      0.10    0.02    0.29
  C191                 CHANNEL     0.470     0  04:36      0.40    0.28    0.69
  C193                 CHANNEL     0.485     0  04:37      0.31    0.29    0.79
  C194                 CHANNEL     0.492     0  04:39      0.26    0.29    0.83
  C195                 CHANNEL     0.494     0  04:39      0.30    0.13    0.66
  C196                 CONDUIT     0.465     0  04:35      0.38    0.46    0.73
  C197                 CONDUIT     0.570     0  04:31      0.21    0.36    0.93
  C198                 CHANNEL     0.615     0  04:30      0.25    0.16    0.56
  C199                 CHANNEL     0.615     0  04:30      0.25    3.63    0.65
  C200                 CHANNEL     0.615     0  04:30      0.28    3.29    0.62
  C201                 CHANNEL     0.617     0  04:31      0.27    0.25    0.51
  C202                 CHANNEL     0.620     0  04:30      0.27    0.25    0.52
  C203                 CHANNEL     0.622     0  04:30      0.27    0.25    0.52
  C204                 CHANNEL     0.624     0  04:30      0.39    0.25    0.53
  C205                 CONDUIT     0.688     0  04:21      0.27    0.64    0.64
  C206                 CHANNEL     0.766     0  04:20      0.33    0.31    0.53
  C207                 CHANNEL     0.743     0  04:20      0.32    0.30    0.53
  C208                 CHANNEL     0.719     0  04:23      0.31    0.29    0.52
  C209                 CHANNEL     0.715     0  04:25      0.31    0.29    0.51
  C210                 CHANNEL     0.716     0  04:26      0.37    0.30    0.60
  C211                 CHANNEL     0.717     0  04:26      0.36    0.35    0.54
  C212                 CONDUIT     0.842     0  04:22      0.33    0.66    0.65
  C213                 CHANNEL     0.838     0  04:22      0.43    0.41    0.54
  C214                 CHANNEL     0.833     0  04:23      0.46    0.41    0.52
  C215                 CONDUIT     0.812     0  04:26      0.30    0.64    0.67
  C216                 CONDUIT     0.795     0  04:29      0.38    0.80    0.56
  C217                 CONDUIT     0.804     0  04:35      0.32    0.43    0.43
  C218                 CHANNEL     0.881     0  04:30      0.39    0.43    0.60
  C219                 CHANNEL     0.877     0  04:30      0.39    0.43    0.60
  C220                 CHANNEL     0.871     0  04:32      0.40    0.43    0.58
  C221                 CHANNEL     0.870     0  04:34      0.42    0.43    0.56
  C222                 CONDUIT     0.898     0  04:33      0.40    0.82    0.64
  C223                 CHANNEL     0.946     0  04:31      0.46    0.16    0.56
  C224                 CHANNEL     0.936     0  04:32      0.38    0.82    0.85
  C225                 CHANNEL     0.922     0  04:34      0.39    0.81    0.83
  C226                 CHANNEL     0.911     0  04:36      0.45    0.80    0.80
  C227                 CONDUIT     0.893     0  04:42      0.30    0.98    0.86
  C228                 CHANNEL     0.885     0  04:46      0.49    0.49    0.68
  C229                 CONDUIT     0.894     0  04:45      0.23    0.21    0.50
  C230                 CHANNEL     0.894     0  04:46      0.47    0.49    0.70
  C231                 CHANNEL     0.892     0  04:48      0.47    0.49    0.70
  C232                 CHANNEL     0.888     0  04:51      0.47    0.49    0.70
  C233                 CHANNEL     0.886     0  04:54      0.49    0.49    0.68
  C234                 CONDUIT     0.880     0  04:58      0.36    0.49    0.52
  C235                 CHANNEL     0.881     0  04:58      0.50    0.49    0.66
  C236                 CHANNEL     0.889     0  04:57      0.47    0.58    0.74
  C237                 CHANNEL     0.888     0  04:58      0.47    0.58    0.74
  C238                 CHANNEL     0.893     0  05:00      0.48    0.58    0.74
  C239                 CHANNEL     0.892     0  05:01      0.48    0.58    0.73
  C240                 CHANNEL     0.891     0  05:02      0.52    0.56    0.73
  C241                 CHANNEL     0.891     0  05:02      0.60    0.58    0.73
  C242                 CONDUIT     0.891     0  05:02      0.40    0.42    0.59
  C243                 CHANNEL     0.891     0  05:05      0.51    0.58    0.69
  C244                 CHANNEL     0.887     0  05:08      0.81    0.20    0.40
  C245                 CONDUIT     0.886     0  05:08      0.42    0.33    0.53
  C246                 CHANNEL     0.892     0  05:12      0.39    0.39    0.61
  C247                 CHANNEL     0.887     0  05:15      0.41    0.39    0.59
  C248                 CHANNEL     0.886     0  05:17      0.44    0.39    0.56
  C249                 CHANNEL     0.886     0  05:19      2.37    0.48    0.56
  C250                 CONDUIT     0.885     0  05:19      0.48    0.44    0.45
  C251                 CONDUIT     0.885     0  05:19      0.48    0.44    0.45
  C252                 CHANNEL     0.896     0  05:19      4.03    0.49    0.53
  C253                 CHANNEL     0.895     0  05:20      0.69    0.28    0.52
  C254                 CHANNEL     0.893     0  05:21      0.85    0.28    0.55
  C255                 CHANNEL     0.891     0  05:23      0.39    0.27    0.59
  C256                 CHANNEL     0.891     0  05:24      0.38    0.27    0.64
  C257                 CHANNEL     0.890     0  05:24      0.45    0.27    0.67
  C258                 CONDUIT     0.889     0  05:24      0.44    0.44    0.56
  C259                 CHANNEL     0.888     0  05:25      0.39    0.27    0.72
  C260                 CHANNEL     0.887     0  05:26      0.38    0.27    0.76
  C261                 CHANNEL     0.889     0  05:26      2.02    0.27    0.79
  C262                 CHANNEL     0.887     0  05:27      0.28    0.27    0.85
  C263                 CHANNEL     0.886     0  05:29      0.31    0.28    0.59
  C264                 CONDUIT     0.886     0  05:29      0.34    0.62    0.64
  C265                 CHANNEL     0.966     0  04:20      0.39    0.30    0.53
  C266                 CHANNEL     0.959     0  04:20      0.44    0.25    0.57
  C267                 CHANNEL     0.949     0  04:20      0.44    0.25    0.57
  C268                 CHANNEL     0.939     0  04:22      0.44    0.25    0.58
  C269                 CHANNEL     0.945     0  04:31      0.45    0.25    0.58
  C270                 CHANNEL     0.945     0  04:32      0.44    0.25    0.58
  C271                 CHANNEL     0.945     0  04:32      0.44    0.25    0.58
  C272                 CHANNEL     0.946     0  04:33      0.44    0.25    0.58
  C273                 CHANNEL     1.014     0  04:30      0.46    0.27    0.57
  C274                 CHANNEL     1.012     0  04:31      0.47    0.27    0.56
  C275                 CHANNEL     1.011     0  04:32      0.49    0.27    0.55
  C276                 CHANNEL     1.010     0  04:32      0.50    0.27    0.54
  C277                 CHANNEL     1.009     0  04:33      0.53    0.27    0.53
  C278                 CHANNEL     1.008     0  04:33      0.56    0.27    0.51
  C279                 CHANNEL     1.006     0  04:33      0.65    0.27    0.46
  C280                 CHANNEL     1.004     0  04:36      0.50    0.46    0.62
  C281                 CHANNEL     1.041     0  04:35      0.51    0.48    0.62
  C282                 CHANNEL     1.040     0  04:35      0.51    0.48    0.62
  C283                 CHANNEL     1.050     0  04:35      0.52    0.48    0.61
  C284                 CHANNEL     1.049     0  04:36      0.53    0.48    0.61
  C285                 CHANNEL     1.048     0  04:36      0.54    0.48    0.59
  C286                 CHANNEL     1.047     0  04:37      0.64    0.34    0.58
  C287                 CHANNEL     1.045     0  04:37      0.64    0.34    0.58
  C288                 CHANNEL     1.044     0  04:38      0.64    0.34    0.58
  C289                 CHANNEL     1.044     0  04:38      0.63    0.34    0.58
  C290                 CHANNEL     1.043     0  04:39      0.63    0.34    0.58
  C291                 CHANNEL     1.042     0  04:39      0.63    0.34    0.59
  C292                 CHANNEL     1.061     0  04:40      0.64    0.35    0.59
  C293                 CHANNEL     1.061     0  04:40      0.64    0.35    0.59
  C294                 CHANNEL     1.060     0  04:41      0.64    0.35    0.59
  C295                 CHANNEL     1.060     0  04:41      0.64    0.35    0.59
  C296                 CHANNEL     1.059     0  04:41      0.64    0.35    0.59
  C297                 CHANNEL     1.059     0  04:42      0.63    0.35    0.59
  C298                 CHANNEL     1.059     0  04:42      0.63    0.35    0.59
  C299                 CHANNEL     1.058     0  04:42      0.62    0.35    0.60
  C300                 CHANNEL     1.058     0  04:43      0.61    0.35    0.61
  C301                 CHANNEL     1.058     0  04:43      1.00    0.26    0.37
  C302                 CHANNEL     0.663     0  04:15      0.50    0.14    0.48
  C303                 CHANNEL     0.475     0  04:37      0.36    0.28    0.73
  C353                 CONDUIT     0.023     0  04:45      1.33    0.01    0.06
  
  
  ***************************
  Flow Classification Summary
  ***************************
  
  -------------------------------------------------------------------------------------
                      Adjusted    ---------- Fraction of Time in Flow Class ---------- 
                       /Actual         Up    Down  Sub   Sup   Up    Down  Norm  Inlet 
  Conduit               Length    Dry  Dry   Dry   Crit  Crit  Crit  Crit  Ltd   Ctrl  
  -------------------------------------------------------------------------------------
  FID1123                 1.00   0.15  0.00  0.00  0.41  0.00  0.00  0.44  0.30  0.00
  FID1139                 1.00   0.14  0.00  0.00  0.00  0.00  0.00  0.86  0.00  0.00
  FID1148                 1.00   0.11  0.00  0.00  0.43  0.00  0.00  0.46  0.00  0.00
  FID1149                 1.00   0.12  0.00  0.00  0.74  0.01  0.00  0.13  0.59  0.00
  FID3364                 1.00   0.12  0.00  0.00  0.82  0.00  0.00  0.06  0.65  0.00
  FID3671                 1.00   0.16  0.00  0.00  0.00  0.00  0.00  0.84  0.00  0.00
  FID3672                 1.00   0.15  0.00  0.00  0.00  0.00  0.00  0.85  0.00  0.00
  FID3762                 1.00   0.02  0.13  0.00  0.82  0.03  0.00  0.00  0.67  0.00
  FID3765                 1.00   0.01  0.13  0.00  0.78  0.07  0.00  0.00  0.68  0.00
  FID4112                 1.00   0.13  0.00  0.00  0.00  0.00  0.00  0.87  0.00  0.00
  FID4186                 1.00   0.20  0.00  0.00  0.16  0.31  0.00  0.34  0.00  0.00
  FID4187                 1.00   0.21  0.00  0.00  0.00  0.00  0.00  0.79  0.00  0.00
  FID4201                 1.00   0.13  0.00  0.00  0.78  0.00  0.00  0.09  0.35  0.00
  FID4202                 1.00   0.14  0.00  0.00  0.00  0.00  0.00  0.86  0.00  0.00
  FID4203                 1.00   0.15  0.85  0.00  0.00  0.00  0.00  0.00  0.00  0.00
  FID4299                 1.00   0.20  0.00  0.00  0.00  0.00  0.00  0.80  0.00  0.00
  FID4372                 1.00   0.09  0.06  0.00  0.86  0.00  0.00  0.00  0.68  0.00
  FID4498                 1.00   0.16  0.00  0.00  0.80  0.00  0.00  0.04  0.63  0.00
  FID4806                 1.00   0.14  0.00  0.00  0.00  0.00  0.00  0.86  0.00  0.00
  FID4807                 1.00   0.22  0.00  0.00  0.00  0.00  0.00  0.78  0.00  0.00
  FID4882                 1.00   0.23  0.54  0.00  0.23  0.00  0.00  0.00  0.53  0.00
  FID4884                 1.00   0.12  0.00  0.00  0.09  0.07  0.00  0.72  0.11  0.00
  FID4914                 1.00   0.14  0.01  0.00  0.85  0.00  0.00  0.00  0.67  0.00
  FID4915                 1.00   0.20  0.00  0.00  0.77  0.00  0.00  0.03  0.55  0.00
  FID4916                 1.00   0.22  0.00  0.00  0.61  0.00  0.00  0.16  0.00  0.00
  FID4917                 1.00   0.24  0.01  0.00  0.75  0.00  0.00  0.00  0.59  0.00
  FID5307                 1.00   0.19  0.00  0.00  0.77  0.00  0.00  0.03  0.32  0.00
  FID5308                 1.00   0.20  0.00  0.00  0.00  0.00  0.00  0.80  0.00  0.00
  FID5312                 1.00   0.21  0.00  0.00  0.00  0.00  0.00  0.79  0.00  0.00
  FID5865                 1.00   0.11  0.00  0.00  0.33  0.09  0.00  0.47  0.31  0.00
  C9                      1.00   0.00  0.00  0.00  1.00  0.00  0.00  0.00  0.00  0.00
  C12                     1.00   0.00  0.00  0.00  1.00  0.00  0.00  0.00  0.00  0.00
  C13                     1.00   0.00  0.00  0.00  1.00  0.00  0.00  0.00  0.00  0.00
  C14                     1.00   0.00  0.00  0.00  1.00  0.00  0.00  0.00  0.00  0.00
  C52                     1.00   0.04  0.10  0.00  0.85  0.00  0.00  0.00  0.68  0.00
  C130                    1.00   0.15  0.00  0.00  0.54  0.00  0.00  0.31  0.00  0.00
  C131                    1.00   0.20  0.00  0.00  0.54  0.01  0.00  0.25  0.42  0.00
  C139                    1.00   0.12  0.61  0.00  0.26  0.00  0.01  0.00  0.48  0.00
  C191                    1.00   0.00  0.00  0.00  1.00  0.00  0.00  0.00  0.00  0.00
  C193                    1.00   0.00  0.00  0.00  1.00  0.00  0.00  0.00  0.00  0.00
  C194                    1.00   0.01  0.00  0.00  0.99  0.00  0.00  0.00  0.00  0.00
  C195                    1.00   0.01  0.00  0.00  0.99  0.00  0.00  0.00  0.00  0.00
  C196                    1.00   0.00  0.00  0.00  1.00  0.00  0.00  0.00  0.00  0.00
  C197                    1.00   0.01  0.00  0.00  0.99  0.00  0.00  0.00  0.00  0.00
  C198                    1.00   0.01  0.00  0.00  0.99  0.00  0.00  0.00  0.00  0.00
  C199                    1.00   0.01  0.00  0.00  0.99  0.00  0.00  0.00  0.00  0.00
  C200                    1.00   0.01  0.00  0.00  0.99  0.00  0.00  0.00  0.00  0.00
  C201                    1.00   0.01  0.00  0.00  0.99  0.00  0.00  0.00  0.00  0.00
  C202                    1.00   0.01  0.00  0.00  0.99  0.00  0.00  0.00  0.00  0.00
  C203                    1.00   0.02  0.00  0.00  0.98  0.00  0.00  0.00  0.00  0.00
  C204                    1.00   0.02  0.00  0.00  0.98  0.00  0.00  0.00  0.00  0.00
  C205                    1.00   0.02  0.00  0.00  0.98  0.00  0.00  0.00  0.00  0.00
  C206                    1.00   0.02  0.00  0.00  0.98  0.00  0.00  0.00  0.00  0.00
  C207                    1.00   0.02  0.00  0.00  0.98  0.00  0.00  0.00  0.00  0.00
  C208                    1.00   0.02  0.00  0.00  0.98  0.00  0.00  0.00  0.00  0.00
  C209                    1.00   0.02  0.00  0.00  0.98  0.00  0.00  0.00  0.00  0.00
  C210                    1.00   0.03  0.00  0.00  0.97  0.00  0.00  0.00  0.00  0.00
  C211                    1.00   0.03  0.00  0.00  0.97  0.00  0.00  0.00  0.00  0.00
  C212                    1.00   0.03  0.00  0.00  0.97  0.00  0.00  0.00  0.00  0.00
  C213                    1.00   0.03  0.00  0.00  0.97  0.00  0.00  0.00  0.00  0.00
  C214                    1.00   0.03  0.00  0.00  0.97  0.00  0.00  0.00  0.00  0.00
  C215                    1.00   0.03  0.00  0.00  0.97  0.00  0.00  0.00  0.36  0.00
  C216                    1.00   0.03  0.00  0.00  0.97  0.00  0.00  0.00  0.00  0.00
  C217                    1.00   0.03  0.00  0.00  0.97  0.00  0.00  0.00  0.00  0.00
  C218                    1.00   0.03  0.00  0.00  0.97  0.00  0.00  0.00  0.00  0.00
  C219                    1.00   0.04  0.00  0.00  0.96  0.00  0.00  0.00  0.00  0.00
  C220                    1.00   0.04  0.00  0.00  0.96  0.00  0.00  0.00  0.00  0.00
  C221                    1.00   0.05  0.00  0.00  0.95  0.00  0.00  0.00  0.00  0.00
  C222                    1.00   0.05  0.00  0.00  0.95  0.00  0.00  0.00  0.00  0.00
  C223                    1.00   0.05  0.00  0.00  0.95  0.00  0.00  0.00  0.01  0.00
  C224                    1.00   0.05  0.00  0.00  0.95  0.00  0.00  0.00  0.00  0.00
  C225                    1.00   0.05  0.00  0.00  0.95  0.00  0.00  0.00  0.00  0.00
  C226                    1.00   0.06  0.00  0.00  0.94  0.00  0.00  0.00  0.00  0.00
  C227                    1.00   0.06  0.00  0.00  0.94  0.00  0.00  0.00  0.00  0.00
  C228                    1.00   0.06  0.00  0.00  0.94  0.00  0.00  0.00  0.00  0.00
  C229                    1.00   0.07  0.00  0.00  0.93  0.00  0.00  0.00  0.00  0.00
  C230                    1.00   0.07  0.00  0.00  0.93  0.00  0.00  0.00  0.00  0.00
  C231                    1.00   0.07  0.00  0.00  0.93  0.00  0.00  0.00  0.00  0.00
  C232                    1.00   0.07  0.00  0.00  0.93  0.00  0.00  0.00  0.00  0.00
  C233                    1.00   0.08  0.00  0.00  0.92  0.00  0.00  0.00  0.00  0.00
  C234                    1.00   0.08  0.00  0.00  0.92  0.00  0.00  0.00  0.00  0.00
  C235                    1.00   0.08  0.00  0.00  0.92  0.00  0.00  0.00  0.00  0.00
  C236                    1.00   0.08  0.00  0.00  0.92  0.00  0.00  0.00  0.00  0.00
  C237                    1.00   0.08  0.00  0.00  0.92  0.00  0.00  0.00  0.00  0.00
  C238                    1.00   0.09  0.00  0.00  0.91  0.00  0.00  0.00  0.00  0.00
  C239                    1.00   0.09  0.00  0.00  0.91  0.00  0.00  0.00  0.00  0.00
  C240                    1.00   0.09  0.00  0.00  0.91  0.00  0.00  0.00  0.00  0.00
  C241                    1.00   0.09  0.00  0.00  0.91  0.00  0.00  0.00  0.00  0.00
  C242                    1.00   0.09  0.00  0.00  0.91  0.00  0.00  0.00  0.00  0.00
  C243                    1.00   0.09  0.00  0.00  0.91  0.00  0.00  0.00  0.00  0.00
  C244                    1.00   0.10  0.00  0.00  0.90  0.00  0.00  0.00  0.00  0.00
  C245                    1.00   0.10  0.00  0.00  0.90  0.00  0.00  0.00  0.00  0.00
  C246                    1.00   0.10  0.01  0.00  0.89  0.00  0.00  0.00  0.00  0.00
  C247                    1.00   0.10  0.00  0.00  0.90  0.00  0.00  0.00  0.00  0.00
  C248                    1.00   0.13  0.00  0.00  0.87  0.00  0.00  0.00  0.00  0.00
  C249                    1.00   0.10  0.04  0.00  0.85  0.00  0.00  0.00  0.01  0.00
  C250                    1.00   0.10  0.00  0.00  0.90  0.00  0.00  0.00  0.00  0.00
  C251                    1.00   0.11  0.00  0.00  0.89  0.00  0.00  0.00  0.04  0.00
  C252                    1.00   0.12  0.00  0.00  0.88  0.01  0.00  0.00  0.00  0.00
  C253                    1.00   0.12  0.00  0.00  0.88  0.00  0.00  0.00  0.00  0.00
  C254                    1.00   0.16  0.00  0.00  0.84  0.00  0.00  0.00  0.00  0.00
  C255                    1.00   0.16  0.02  0.00  0.82  0.00  0.00  0.00  0.00  0.00
  C256                    1.00   0.10  0.06  0.00  0.84  0.00  0.00  0.00  0.02  0.00
  C257                    1.00   0.10  0.00  0.00  0.89  0.00  0.00  0.00  0.00  0.00
  C258                    1.00   0.11  0.02  0.00  0.88  0.00  0.00  0.00  0.01  0.00
  C259                    1.00   0.11  0.00  0.00  0.89  0.00  0.00  0.00  0.04  0.00
  C260                    1.00   0.12  0.02  0.00  0.86  0.00  0.00  0.00  0.01  0.00
  C261                    1.00   0.12  0.00  0.00  0.87  0.01  0.00  0.00  0.00  0.00
  C262                    1.00   0.12  0.00  0.00  0.87  0.00  0.00  0.00  0.07  0.00
  C263                    1.00   0.11  0.00  0.00  0.89  0.00  0.00  0.00  0.00  0.00
  C264                    1.00   0.11  0.00  0.00  0.89  0.00  0.00  0.00  0.00  0.00
  C265                    1.00   0.11  0.00  0.00  0.89  0.00  0.00  0.00  0.00  0.00
  C266                    1.00   0.11  0.00  0.00  0.89  0.00  0.00  0.00  0.00  0.00
  C267                    1.00   0.16  0.00  0.00  0.84  0.00  0.00  0.00  0.00  0.00
  C268                    1.00   0.15  0.03  0.00  0.82  0.00  0.00  0.00  0.03  0.00
  C269                    1.00   0.15  0.00  0.00  0.85  0.00  0.00  0.00  0.00  0.00
  C270                    1.00   0.11  0.06  0.00  0.83  0.00  0.00  0.00  0.04  0.00
  C271                    1.00   0.11  0.00  0.00  0.89  0.00  0.00  0.00  0.02  0.00
  C272                    1.00   0.12  0.01  0.00  0.87  0.00  0.00  0.00  0.00  0.00
  C273                    1.00   0.12  0.00  0.00  0.88  0.00  0.00  0.00  0.00  0.00
  C274                    1.00   0.13  0.00  0.00  0.87  0.00  0.00  0.00  0.00  0.00
  C275                    1.00   0.16  0.00  0.00  0.84  0.00  0.00  0.00  0.00  0.00
  C276                    1.00   0.19  0.00  0.00  0.81  0.00  0.00  0.00  0.00  0.00
  C277                    1.00   0.22  0.00  0.00  0.78  0.00  0.00  0.00  0.00  0.00
  C278                    1.00   0.23  0.00  0.00  0.77  0.00  0.00  0.00  0.00  0.00
  C279                    1.00   0.20  0.04  0.00  0.76  0.00  0.00  0.00  0.00  0.00
  C280                    1.00   0.14  0.06  0.00  0.80  0.00  0.00  0.00  0.01  0.00
  C281                    1.00   0.14  0.00  0.00  0.86  0.00  0.00  0.00  0.03  0.00
  C282                    1.00   0.14  0.00  0.00  0.86  0.00  0.00  0.00  0.03  0.00
  C283                    1.00   0.15  0.00  0.00  0.85  0.00  0.00  0.00  0.01  0.00
  C284                    1.00   0.17  0.00  0.00  0.83  0.00  0.00  0.00  0.01  0.00
  C285                    1.00   0.19  0.00  0.00  0.81  0.00  0.00  0.00  0.00  0.00
  C286                    1.00   0.22  0.00  0.00  0.78  0.00  0.00  0.00  0.00  0.00
  C287                    1.00   0.13  0.10  0.00  0.77  0.00  0.00  0.00  0.00  0.00
  C288                    1.00   0.13  0.00  0.00  0.87  0.00  0.00  0.00  0.00  0.00
  C289                    1.00   0.26  0.00  0.00  0.74  0.00  0.00  0.00  0.00  0.00
  C290                    1.00   0.13  0.14  0.00  0.74  0.00  0.00  0.00  0.00  0.00
  C291                    1.00   0.13  0.00  0.00  0.87  0.00  0.00  0.00  0.07  0.00
  C292                    1.00   0.15  0.00  0.00  0.85  0.00  0.00  0.00  0.01  0.00
  C293                    1.00   0.16  0.00  0.00  0.84  0.00  0.00  0.00  0.01  0.00
  C294                    1.00   0.17  0.00  0.00  0.83  0.00  0.00  0.00  0.01  0.00
  C295                    1.00   0.20  0.00  0.00  0.80  0.00  0.00  0.00  0.01  0.00
  C296                    1.00   0.18  0.05  0.00  0.78  0.00  0.00  0.00  0.01  0.00
  C297                    1.00   0.18  0.00  0.00  0.82  0.00  0.00  0.00  0.00  0.00
  C298                    1.00   0.25  0.00  0.00  0.75  0.00  0.00  0.00  0.00  0.00
  C299                    1.00   0.26  0.00  0.00  0.74  0.00  0.00  0.00  0.00  0.00
  C300                    1.00   0.27  0.00  0.00  0.73  0.00  0.00  0.00  0.00  0.00
  C301                    1.00   0.27  0.00  0.00  0.73  0.00  0.00  0.00  0.00  0.00
  C302                    1.00   0.00  0.00  0.00  1.00  0.00  0.00  0.00  0.00  0.00
  C303                    1.00   0.00  0.00  0.00  1.00  0.00  0.00  0.00  0.00  0.00
  C353                    1.00   0.15  0.00  0.00  0.00  0.00  0.00  0.85  0.00  0.00
  
  
  *************************
  Conduit Surcharge Summary
  *************************
  
  ----------------------------------------------------------------------------
                                                           Hours        Hours 
                         --------- Hours Full --------   Above Full   Capacity
  Conduit                Both Ends  Upstream  Dnstream   Normal Flow   Limited
  ----------------------------------------------------------------------------
  FID4201                     0.01      0.01      0.01      0.04         0.01
  FID4498                     0.01      0.01      1.68      0.01         0.01
  FID4882                     0.01      0.01      2.35      0.01         0.01
  FID4914                     0.01      0.01      3.17      0.01         0.01
  C199                        0.01      0.01      0.01      8.52         0.01
  C200                        0.01      0.01      0.01      8.48         0.01
  
  
  ***************************
  Link Pollutant Load Summary
  ***************************
  
  --------------------------------------------------------------
                                 TSS            TP           TDP
  Link                            kg            kg            kg
  --------------------------------------------------------------
  FID1123                     23.460         0.012         0.071
  FID1139                    216.534         0.077         0.232
  FID1148                    377.088         0.151         0.487
  FID1149                    380.075         0.151         0.489
  FID3364                    443.943         0.191         0.533
  FID3671                     17.494         0.002         0.011
  FID3672                    121.645         0.038         0.075
  FID3762                    245.951         0.067         0.132
  FID3765                    422.870         0.125         0.296
  FID4112                    173.466         0.056         0.135
  FID4186                     24.098         0.004         0.016
  FID4187                     23.695         0.004         0.015
  FID4201                    114.504         0.037         0.067
  FID4202                    113.480         0.036         0.066
  FID4203                      0.000         0.000         0.000
  FID4299                     18.014         0.005         0.004
  FID4372                   1000.586         0.584         0.404
  FID4498                    451.983         0.026         0.051
  FID4806                   1260.706         0.284         0.929
  FID4807                      4.613         0.002         0.000
  FID4882                      0.001         0.000         0.000
  FID4884                    104.418         0.059         0.279
  FID4914                     59.866         0.018         0.023
  FID4915                     11.770         0.004         0.004
  FID4916                      9.635         0.004         0.003
  FID4917                     11.531         0.004         0.003
  FID5307                     48.289         0.018         0.056
  FID5308                     21.925         0.007         0.003
  FID5312                     45.941         0.017         0.054
  FID5865                    332.083         0.906         0.552
  C9                         180.146         1.044         1.311
  C12                        178.727         1.025         1.287
  C13                        251.030         1.034         1.317
  C14                        164.346         0.680         0.870
  C52                        631.893         0.205         0.499
  C130                        47.695         0.019         0.055
  C131                        47.740         0.019         0.055
  C139                         1.927         0.001         0.003
  C191                       303.505         0.712         0.946
  C193                       304.499         0.691         0.919
  C194                       301.769         0.685         0.915
  C195                       301.325         0.683         0.912
  C196                       286.145         0.715         0.940
  C197                       724.269         0.805         1.205
  C198                       969.993         0.870         1.333
  C199                       973.112         0.867         1.330
  C200                       971.462         0.863         1.325
  C201                       976.722         0.858         1.318
  C202                       995.211         0.856         1.319
  C203                       995.042         0.852         1.314
  C204                       991.035         0.850         1.312
  C205                      1329.954         0.977         1.668
  C206                      1502.767         1.030         1.799
  C207                      1508.182         1.027         1.800
  C208                      1525.416         1.024         1.806
  C209                      1519.412         1.019         1.797
  C210                      1519.517         1.017         1.795
  C211                      1518.621         1.015         1.792
  C212                      1991.654         1.167         2.157
  C213                      2003.808         1.169         2.155
  C214                      2004.966         1.167         2.154
  C215                      2071.654         1.166         2.189
  C216                      2044.878         1.152         2.161
  C217                      2158.791         1.185         2.223
  C218                      2789.102         1.387         2.718
  C219                      2793.963         1.384         2.715
  C220                      2797.300         1.380         2.711
  C221                      2833.163         1.380         2.727
  C222                      3109.912         1.469         2.942
  C223                      3469.973         1.605         3.317
  C224                      3495.987         1.605         3.325
  C225                      3504.778         1.600         3.326
  C226                      3504.160         1.596         3.320
  C227                      3586.101         1.591         3.339
  C228                      3573.247         1.582         3.340
  C229                      3919.761         1.684         3.622
  C230                      3935.645         1.687         3.624
  C231                      3961.897         1.684         3.625
  C232                      3948.990         1.677         3.613
  C233                      3998.535         1.671         3.615
  C234                      3978.366         1.668         3.608
  C235                      4020.353         1.681         3.625
  C236                      5019.183         2.264         4.028
  C237                      5036.354         2.263         4.024
  C238                      5512.490         2.345         4.229
  C239                      5503.048         2.340         4.224
  C240                      5495.934         2.337         4.222
  C241                      5517.454         2.344         4.224
  C242                      5568.333         2.360         4.276
  C243                      5642.471         2.363         4.279
  C244                      5634.305         2.356         4.294
  C245                      5639.989         2.356         4.291
  C246                      6970.749         2.643         5.212
  C247                      6989.101         2.641         5.223
  C248                      7003.538         2.639         5.215
  C249                      6985.294         2.632         5.209
  C250                      7004.716         2.637         5.210
  C251                      7006.444         2.638         5.209
  C252                      7448.663         2.821         5.738
  C253                      7462.224         2.820         5.736
  C254                      7475.451         2.817         5.732
  C255                      7474.026         2.811         5.725
  C256                      7916.037         2.831         5.769
  C257                      7916.673         2.832         5.769
  C258                      7918.536         2.831         5.767
  C259                      7946.282         2.832         5.762
  C260                      7920.899         2.828         5.760
  C261                      8031.583         2.884         6.036
  C262                      8066.919         2.909         6.035
  C263                      8177.383         2.935         6.152
  C264                      8445.738         3.054         6.412
  C265                      8335.742         3.753         6.471
  C266                      8361.371         3.788         6.494
  C267                      8336.520         3.770         6.474
  C268                      8342.597         3.794         6.482
  C269                      8316.248         3.725         6.486
  C270                      8335.341         3.761         6.509
  C271                      8315.764         3.724         6.480
  C272                      8314.985         3.718         6.477
  C273                      8713.526         3.899         6.985
  C274                      8705.956         3.882         6.970
  C275                      8699.995         3.869         6.958
  C276                      8696.593         3.863         6.951
  C277                      8688.846         3.853         6.939
  C278                      8686.458         3.850         6.935
  C279                      8685.405         3.849         6.930
  C280                      8688.504         3.838         6.923
  C281                      8890.525         3.905         7.145
  C282                      8897.001         3.912         7.150
  C283                      8942.416         3.929         7.202
  C284                      8943.449         3.931         7.203
  C285                      8948.672         3.936         7.206
  C286                      8945.652         3.937         7.203
  C287                      8940.509         3.935         7.198
  C288                      8932.087         3.925         7.188
  C289                      8928.294         3.921         7.182
  C290                      8926.959         3.919         7.179
  C291                      8915.244         3.902         7.164
  C292                      9110.215         3.994         7.372
  C293                      9105.572         3.987         7.364
  C294                      9106.765         3.987         7.364
  C295                      9096.749         3.970         7.350
  C296                      9098.144         3.971         7.350
  C297                      9103.207         3.977         7.354
  C298                      9103.581         3.975         7.351
  C299                      9096.877         3.963         7.339
  C300                      9105.251         3.973         7.347
  C301                      9089.381         3.949         7.325
  C302                       179.517         1.038         1.304
  C303                       304.598         0.704         0.935
  C353                       183.107         0.074         0.195
  

  Analysis begun on:  Tue Oct 10 20:16:46 2017
  Analysis ended on:  Tue Oct 10 20:17:24 2017
  Total elapsed time: 00:00:38