
  EPA STORM WATER MANAGEMENT MODEL - VERSION 5.1 (Build 5.1.010)
  --------------------------------------------------------------

  WARNING 04: minimum elevation drop used for Conduit C199
  WARNING 04: minimum elevation drop used for Conduit C200
  WARNING 02: maximum depth increased for Node FID1955
  WARNING 02: maximum depth increased for Node FID1960
  WARNING 02: maximum depth increased for Node FID1965
  WARNING 02: maximum depth increased for Node FID1968
  WARNING 02: maximum depth increased for Node FID2244
  WARNING 02: maximum depth increased for Node FID2442
  WARNING 02: maximum depth increased for Node FID2446
  WARNING 02: maximum depth increased for Node FID5504
  WARNING 02: maximum depth increased for Node FID5527
  WARNING 02: maximum depth increased for Node AFID6926
  WARNING 02: maximum depth increased for Node AFID7376
  
  *********************************************************
  NOTE: The summary statistics displayed in this report are
  based on results found at every computational time step,  
  not just on results from each reporting time step.
  *********************************************************
  
  ****************
  Analysis Options
  ****************
  Flow Units ............... CMS
  Process Models:
    Rainfall/Runoff ........ YES
    RDII ................... NO
    Snowmelt ............... NO
    Groundwater ............ NO
    Flow Routing ........... YES
    Ponding Allowed ........ YES
    Water Quality .......... YES
  Infiltration Method ...... GREEN_AMPT
  Flow Routing Method ...... DYNWAVE
  Starting Date ............ MAY-06-2016 15:00:00
  Ending Date .............. MAY-07-2016 00:00:00
  Antecedent Dry Days ...... 0.0
  Report Time Step ......... 00:01:00
  Wet Time Step ............ 00:01:00
  Dry Time Step ............ 01:00:00
  Routing Time Step ........ 5.00 sec
  Variable Time Step ....... YES
  Maximum Trials ........... 8
  Number of Threads ........ 3
  Head Tolerance ........... 0.001500 m
  
  
  **************************        Volume         Depth
  Runoff Quantity Continuity     hectare-m            mm
  **************************     ---------       -------
  Total Precipitation ......         2.583         6.709
  Evaporation Loss .........         0.000         0.000
  Infiltration Loss ........         1.519         3.946
  Surface Runoff ...........         0.552         1.434
  Final Storage ............         0.508         1.319
  Continuity Error (%) .....         0.154
  
  
  **************************           TSS            TP           TDP
  Runoff Quality Continuity             kg            kg            kg
  **************************    ----------    ----------    ----------
  Initial Buildup ..........         0.000         0.000         0.000
  Surface Buildup ..........     18780.711         6.791         6.415
  Wet Deposition ...........         0.000         0.000         0.000
  Sweeping Removal .........         0.000         0.000         0.000
  Infiltration Loss ........         0.000         0.000         0.000
  BMP Removal ..............         0.952         0.000         0.000
  Surface Runoff ...........      9514.276         3.069         2.816
  Remaining Buildup ........      9265.484         3.722         3.598
  Continuity Error (%) .....         0.000         0.000         0.000
  
  
  **************************        Volume        Volume
  Flow Routing Continuity        hectare-m      10^6 ltr
  **************************     ---------     ---------
  Dry Weather Inflow .......         0.000         0.000
  Wet Weather Inflow .......         0.552         5.523
  Groundwater Inflow .......         0.000         0.000
  RDII Inflow ..............         0.000         0.000
  External Inflow ..........         1.384        13.843
  External Outflow .........         1.702        17.021
  Flooding Loss ............         0.000         0.000
  Evaporation Loss .........         0.000         0.000
  Exfiltration Loss ........         0.000         0.000
  Initial Stored Volume ....         0.000         0.000
  Final Stored Volume ......         0.236         2.363
  Continuity Error (%) .....        -0.096
  
  
  **************************           TSS            TP           TDP
  Quality Routing Continuity            kg            kg            kg
  **************************    ----------    ----------    ----------
  Dry Weather Inflow .......         0.000         0.000         0.000
  Wet Weather Inflow .......      7337.934         3.044         2.810
  Groundwater Inflow .......         0.000         0.000         0.000
  RDII Inflow ..............         0.000         0.000         0.000
  External Inflow ..........       137.985         1.039         1.284
  External Outflow .........      6569.636         3.945         3.906
  Flooding Loss ............         0.000         0.000         0.000
  Exfiltration Loss ........         0.000         0.000         0.000
  Mass Reacted .............         0.000         0.000         0.000
  Initial Stored Mass ......         0.000         0.000         0.000
  Final Stored Mass ........        25.188         0.165         0.207
  Continuity Error (%) .....        11.786        -0.671        -0.470
  
  
  *************************
  Highest Continuity Errors
  *************************
  Node FID2824 (2.99%)
  Node FID2827 (2.44%)
  
  
  ***************************
  Time-Step Critical Elements
  ***************************
  Link C241 (98.11%)
  
  
  ********************************
  Highest Flow Instability Indexes
  ********************************
  Link C249 (82)
  Link C257 (58)
  Link C252 (52)
  Link C258 (44)
  Link C241 (42)
  
  
  *************************
  Routing Time Step Summary
  *************************
  Minimum Time Step           :     0.56 sec
  Average Time Step           :     0.81 sec
  Maximum Time Step           :     5.00 sec
  Percent in Steady State     :     0.00
  Average Iterations per Step :     2.00
  Percent Not Converging      :     0.00
  
  
  ***************************
  Subcatchment Runoff Summary
  ***************************
  
  --------------------------------------------------------------------------------------------------------
                            Total      Total      Total      Total      Total       Total     Peak  Runoff
                           Precip      Runon       Evap      Infil     Runoff      Runoff   Runoff   Coeff
  Subcatchment                 mm         mm         mm         mm         mm    10^6 ltr      CMS
  --------------------------------------------------------------------------------------------------------
  S0                         5.84       0.00       0.00       5.27       0.35        0.00     0.00   0.060
  S1                         5.84       0.00       0.00       3.49       1.42        0.14     0.04   0.243
  S2                         6.35       0.00       0.00       3.20       1.98        0.34     0.10   0.311
  S3                         5.84       0.00       0.00       4.38       0.89        0.03     0.02   0.152
  S4                         5.84       0.00       0.00       3.64       1.34        0.13     0.08   0.229
  S6                         6.35       0.00       0.00      -0.07       2.38        0.04     0.01   0.376
  S7                         6.35       0.00       0.00       2.23       1.28        0.50     0.11   0.202
  S8                         6.35       0.00       0.00      -0.06       2.40        0.00     0.00   0.377
  S9                         6.35       0.00       0.00       3.08       2.07        0.00     0.00   0.326
  S10                        6.35       0.00       0.00       3.17       2.02        0.01     0.00   0.318
  S11                        6.35       0.00       0.00       5.39       0.61        0.00     0.00   0.097
  S12                        6.35       0.00       0.00       3.33       1.92        0.00     0.00   0.302
  S13                        6.35       0.00       0.00       3.50       1.79        0.14     0.04   0.282
  S14                        6.35       0.00       0.00       5.00       0.86        0.01     0.00   0.135
  S16                        6.35       0.00       0.00       0.94       0.70        0.04     0.01   0.111
  S17                        6.35       0.00       0.00       3.27       1.93        0.37     0.11   0.303
  S18                        6.35       0.00       0.00       2.71       2.36        0.00     0.00   0.372
  S19                        6.35       0.00       0.00       4.29       1.30        0.03     0.01   0.205
  S20                        6.35       0.00       0.00       3.40       1.87        0.01     0.00   0.294
  S21                        6.35       0.00       0.00       3.25       0.64        0.34     0.07   0.101
  S22                        6.35       0.00       0.00       3.04       2.10        0.00     0.00   0.331
  S23                        6.35       0.00       0.00       4.55       1.14        0.02     0.01   0.179
  S24                        6.35       0.00       0.00       4.40       1.23        0.02     0.01   0.194
  S25                        6.35       0.00       0.00       3.55       1.77        0.02     0.01   0.278
  S27                        6.35       0.00       0.00       3.81       1.61        0.01     0.00   0.254
  S28                        5.84       0.00       0.00       5.84       0.00        0.00     0.00   0.001
  S29                        5.84       0.00       0.00       5.81       0.02        0.00     0.00   0.003
  S30                        6.35       0.00       0.00       6.34       0.01        0.00     0.00   0.002
  S31                        6.35       0.00       0.00       6.34       0.00        0.00     0.00   0.001
  S32                        6.35       0.00       0.00       5.16       0.76        0.00     0.00   0.120
  S33                        6.35       0.00       0.00       2.91       2.18        0.03     0.01   0.343
  S34                        6.35       0.00       0.00       4.48       1.38        0.49     0.15   0.218
  S35                        6.35       0.00       0.00       4.39       1.25        0.00     0.00   0.196
  S36                        6.35       0.00       0.00       5.43       0.59        0.01     0.00   0.093
  S37                        6.35       0.00       0.00       3.14       2.03        0.01     0.00   0.320
  S39                        6.35       0.00       0.00       4.49       1.17        0.17     0.06   0.185
  S40                        6.35       0.00       0.00       4.97       0.87        0.02     0.01   0.137
  S41                        6.35       0.00       0.00       3.38       1.87        0.26     0.08   0.295
  S42                        6.35       0.00       0.00       3.66       1.69        0.17     0.05   0.267
  S43                        6.35       0.00       0.00       5.20       0.73        0.01     0.00   0.115
  S44                        6.35       0.00       0.00       3.71       1.66        0.37     0.11   0.261
  S45                        8.13       0.00       0.00       5.69       1.75        0.00     0.00   0.215
  S47                        8.13       0.00       0.00       4.94       2.26        0.10     0.08   0.278
  S48                        8.13       0.00       0.00       5.40       1.96        0.01     0.00   0.241
  S49                        8.13       0.00       0.00       5.03       2.17        0.41     0.22   0.267
  S51                        8.13       0.00       0.00       7.34       0.56        0.01     0.00   0.069
  S52                        8.13       0.00       0.00       5.26       2.03        0.14     0.10   0.249
  S53                        8.13       0.00       0.00       5.15       2.09        0.29     0.17   0.257
  S54                        8.13       0.00       0.00       5.87       1.58        0.15     0.04   0.194
  S55                        8.13       0.00       0.00       5.26       2.01        0.33     0.09   0.247
  S56                        8.13       0.00       0.00       6.59       1.09        0.00     0.00   0.134
  S57                        8.13       0.00       0.00       4.90       2.27        0.02     0.01   0.279
  S58                        8.13       0.00       0.00       5.49       1.85        0.08     0.02   0.227
  S59                        8.13       0.00       0.00       7.35       0.55        0.01     0.00   0.067
  S60                        8.13       0.00       0.00       6.51       1.13        0.03     0.01   0.139
  S61                        8.13       0.00       0.00       7.46       0.47        0.00     0.00   0.058
  S62                        8.13       0.00       0.00       7.12       0.71        0.02     0.01   0.088
  S63                        6.35       0.00       0.00       5.63       0.46        0.01     0.00   0.072
  S64                        6.35       0.00       0.00       3.86       1.58        0.02     0.01   0.249
  S65                        6.35       0.00       0.00       4.83       0.96        0.16     0.05   0.151
  
  
  ****************************
  Subcatchment Washoff Summary
  ****************************
  
  --------------------------------------------------------------
                                 TSS            TP           TDP
  Subcatchment                    kg            kg            kg
  --------------------------------------------------------------
  S0                           0.638         0.000         0.000
  S1                         381.283         0.117         0.029
  S2                         562.848         0.176         0.042
  S3                         149.240         0.044         0.005
  S4                         367.734         0.119         0.024
  S6                          76.091         0.022         0.004
  S7                         438.029         0.062         0.908
  S8                           0.210         0.000         0.000
  S9                           0.283         0.000         0.000
  S10                          6.510         0.003         0.000
  S11                          0.299         0.000         0.000
  S12                          0.144         0.000         0.000
  S13                        300.407         0.086         0.016
  S14                         12.543         0.003         0.002
  S16                         32.260         0.011         0.042
  S17                        607.646         0.187         0.050
  S18                          0.265         0.000         0.000
  S19                         38.572         0.009         0.008
  S20                          7.467         0.004         0.001
  S21                        574.877         0.321         0.616
  S22                          1.913         0.002         0.000
  S23                         40.307         0.003         0.007
  S24                         70.947         0.023         0.004
  S25                         27.808         0.003         0.005
  S27                          9.424         0.004         0.001
  S28                          0.000         0.000         0.000
  S29                          0.170         0.000         0.000
  S30                          0.085         0.000         0.000
  S31                          0.000         0.000         0.000
  S32                          9.761         0.001         0.002
  S33                         27.206         0.012         0.003
  S34                       1105.186         0.489         0.527
  S35                          6.331         0.002         0.001
  S36                         25.875         0.001         0.005
  S37                         10.292         0.003         0.002
  S39                        428.155         0.110         0.047
  S40                         51.693         0.005         0.009
  S41                        446.521         0.154         0.032
  S42                        276.758         0.097         0.031
  S43                         44.997         0.002         0.009
  S44                        613.619         0.199         0.069
  S45                          0.667         0.000         0.000
  S47                        104.083         0.035         0.010
  S48                          3.476         0.002         0.001
  S49                        489.477         0.151         0.055
  S51                         23.028         0.001         0.004
  S52                        181.423         0.061         0.018
  S53                        436.782         0.150         0.034
  S54                        211.948         0.054         0.033
  S55                        406.162         0.117         0.055
  S56                          0.703         0.000         0.000
  S57                         17.394         0.003         0.004
  S58                        101.237         0.039         0.011
  S59                         72.093         0.016         0.005
  S60                         59.782         0.004         0.010
  S61                         16.102         0.002         0.002
  S62                         56.823         0.003         0.010
  S63                         52.923         0.003         0.005
  S64                         35.111         0.002         0.006
  S65                        490.667         0.148         0.051
  --------------------------------------------------------------
  System                    9514.276         3.069         2.816
  
  
  ******************
  Node Depth Summary
  ******************
  
  ---------------------------------------------------------------------------------
                                 Average  Maximum  Maximum  Time of Max    Reported
                                   Depth    Depth      HGL   Occurrence   Max Depth
  Node                 Type       Meters   Meters   Meters  days hr:min      Meters
  ---------------------------------------------------------------------------------
  FID1936              JUNCTION     0.13     0.28  1376.58     0  04:05        0.08
  FID1955              JUNCTION     0.14     0.25  1376.17     0  04:15        0.07
  FID1960              JUNCTION     0.13     0.22  1376.08     0  04:15        0.07
  FID1965              JUNCTION     0.13     0.21  1376.51     0  04:15        0.06
  FID1968              JUNCTION     0.12     0.18  1376.58     0  04:15        0.06
  FID2239              JUNCTION     0.13     0.22  1374.73     0  04:05        0.07
  FID2241              JUNCTION     0.11     0.18  1373.31     0  04:05        0.05
  FID2242              JUNCTION     0.12     0.19  1374.23     0  04:05        0.06
  FID2244              JUNCTION     0.12     0.17  1374.53     0  03:30        0.05
  FID2440              JUNCTION     0.18     0.27  1374.52     0  04:09        0.08
  FID2442              JUNCTION     0.00     0.00  1375.27     0  00:00        0.00
  FID2446              JUNCTION     0.14     0.32  1376.12     0  04:05        0.10
  FID2447              JUNCTION     0.13     0.29  1375.99     0  04:05        0.09
  FID2455              JUNCTION     0.12     0.21  1374.20     0  04:10        0.06
  FID2711              JUNCTION     0.12     0.20  1370.38     0  04:05        0.06
  FID2719              JUNCTION     0.14     0.29  1370.39     0  04:05        0.09
  FID2720              JUNCTION     0.14     0.28  1370.48     0  04:05        0.08
  FID2824              JUNCTION     0.11     0.17  1371.45     0  04:10        0.05
  FID2827              JUNCTION     0.11     0.19  1371.49     0  04:10        0.06
  FID2828              JUNCTION     0.12     0.19  1371.51     0  04:10        0.06
  FID2832              JUNCTION     0.14     0.24  1370.84     0  04:10        0.07
  FID2833              JUNCTION     0.17     0.35  1370.97     0  04:10        0.11
  FID2839              JUNCTION     0.15     0.24  1371.44     0  04:10        0.07
  FID2873              JUNCTION     0.13     0.22  1370.92     0  04:10        0.07
  FID2964              JUNCTION     0.13     0.21  1370.99     0  04:10        0.06
  FID2965              JUNCTION     0.18     0.32  1370.58     0  04:12        0.10
  FID4584              JUNCTION     0.10     0.17  1371.51     0  04:10        0.05
  FID5068              JUNCTION     0.12     0.18  1375.56     0  04:05        0.05
  FID5072              JUNCTION     0.20     0.33  1373.62     0  04:15        0.10
  FID5140              JUNCTION     0.15     0.30  1373.52     0  03:30        0.09
  FID5435              JUNCTION     0.14     0.22  1372.97     0  04:05        0.07
  FID5437              JUNCTION     0.11     0.16  1373.11     0  04:05        0.05
  FID5503              JUNCTION     0.10     0.16  1371.49     0  04:10        0.05
  FID5504              JUNCTION     0.13     0.21  1371.57     0  04:10        0.06
  FID5527              JUNCTION     0.13     0.19  1372.69     0  04:10        0.06
  FID5568              JUNCTION     0.21     0.34  1372.73     0  04:18        0.10
  FID5784              JUNCTION     0.19     0.33  1372.33     0  04:20        0.10
  FID5785              JUNCTION     0.12     0.20  1374.63     0  04:05        0.06
  AFID6926             JUNCTION     0.13     0.21  1370.01     0  04:15        0.06
  AFID7360             JUNCTION     0.19     0.36  1370.49     0  04:13        0.11
  AFID7363             JUNCTION     0.17     0.34  1370.51     0  04:12        0.10
  AFID7376             JUNCTION     0.15     0.28  1371.51     0  04:10        0.09
  AFID7377             JUNCTION     0.20     0.35  1371.03     0  04:11        0.11
  AFID7705             JUNCTION     0.30     0.34  1375.30     0  04:15        0.10
  AFID7706             JUNCTION     0.36     0.39  1375.31     0  04:15        0.12
  AFID7792             JUNCTION     0.14     0.27  1375.07     0  04:05        0.08
  AFID8223             JUNCTION     0.22     0.36  1372.37     0  04:20        0.11
  J1                   JUNCTION     0.50     0.51  1375.50     0  04:15        0.15
  FID4901              JUNCTION     0.22     0.25  1375.32     0  04:15        0.08
  J9                   JUNCTION     0.39     0.40  1375.49     0  04:15        0.12
  J11                  JUNCTION     0.22     0.22  1375.42     0  04:15        0.07
  J12                  JUNCTION     0.21     0.23  1375.34     0  04:15        0.07
  J13                  JUNCTION     0.21     0.24  1375.32     0  04:15        0.07
  FID4902              JUNCTION     0.24     0.27  1375.32     0  04:15        0.08
  J14                  JUNCTION     0.17     0.24  1375.15     0  04:05        0.07
  J15                  JUNCTION     0.15     0.23  1374.89     0  04:06        0.07
  J16                  JUNCTION     0.17     0.25  1374.89     0  04:06        0.08
  FID2449              JUNCTION     0.18     0.27  1374.59     0  04:08        0.08
  J17                  JUNCTION     0.10     0.16  1374.13     0  04:10        0.05
  J19                  JUNCTION     0.16     0.26  1373.81     0  04:13        0.08
  FID5069              JUNCTION     0.23     0.37  1373.62     0  04:15        0.11
  FID5139              JUNCTION     0.22     0.36  1372.71     0  04:18        0.11
  J24                  JUNCTION     0.23     0.36  1372.73     0  04:18        0.11
  FID4984              JUNCTION     0.23     0.37  1372.33     0  04:20        0.11
  FID2669              JUNCTION     0.18     0.33  1368.77     0  04:18        0.10
  FID2712              JUNCTION     0.18     0.34  1369.53     0  04:17        0.10
  FID2718              JUNCTION     0.18     0.34  1369.58     0  04:16        0.10
  FID2838              JUNCTION     0.30     0.49  1370.43     0  04:14        0.15
  FID2825              JUNCTION     0.35     0.55  1370.46     0  04:14        0.17
  FID2823              JUNCTION     0.41     0.62  1370.50     0  04:14        0.19
  FID5505              JUNCTION     0.27     0.46  1370.49     0  04:13        0.14
  FID5436              JUNCTION     0.29     0.42  1371.74     0  04:22        0.13
  FID5438              JUNCTION     0.18     0.31  1371.73     0  04:21        0.09
  J49                  JUNCTION     0.26     0.29  1375.31     0  04:15        0.09
  J50                  JUNCTION     0.31     0.35  1375.31     0  04:15        0.11
  J51                  JUNCTION     0.38     0.41  1375.31     0  04:15        0.13
  J52                  JUNCTION     0.39     0.43  1375.31     0  04:15        0.13
  J53                  JUNCTION     0.18     0.23  1375.16     0  04:05        0.07
  J54                  JUNCTION     0.19     0.23  1375.18     0  04:06        0.07
  J55                  JUNCTION     0.23     0.27  1375.29     0  04:15        0.08
  J56                  JUNCTION     0.21     0.25  1375.27     0  04:15        0.07
  J57                  JUNCTION     0.19     0.22  1375.25     0  04:15        0.07
  J58                  JUNCTION     0.19     0.22  1375.20     0  04:06        0.07
  FID1935              JUNCTION     0.19     0.26  1375.14     0  04:05        0.08
  J59                  JUNCTION     0.19     0.25  1375.13     0  04:05        0.08
  J60                  JUNCTION     0.19     0.25  1375.07     0  04:06        0.08
  J61                  JUNCTION     0.18     0.24  1375.01     0  04:06        0.07
  J62                  JUNCTION     0.17     0.23  1374.98     0  04:06        0.07
  J63                  JUNCTION     0.17     0.24  1374.92     0  04:06        0.07
  J64                  JUNCTION     0.16     0.24  1374.85     0  04:07        0.07
  J65                  JUNCTION     0.12     0.19  1374.77     0  04:07        0.06
  J66                  JUNCTION     0.18     0.27  1374.49     0  04:09        0.08
  J67                  JUNCTION     0.18     0.27  1374.42     0  04:09        0.08
  J68                  JUNCTION     0.17     0.25  1374.32     0  04:10        0.08
  J69                  JUNCTION     0.25     0.37  1374.10     0  04:10        0.11
  J70                  JUNCTION     0.24     0.36  1374.01     0  04:11        0.11
  J71                  JUNCTION     0.22     0.32  1373.92     0  04:12        0.10
  J72                  JUNCTION     0.22     0.36  1373.70     0  04:14        0.11
  J73                  JUNCTION     0.23     0.36  1373.59     0  04:15        0.11
  J74                  JUNCTION     0.23     0.36  1373.35     0  04:16        0.11
  J75                  JUNCTION     0.23     0.36  1373.21     0  04:16        0.11
  J76                  JUNCTION     0.22     0.36  1372.70     0  04:18        0.11
  J77                  JUNCTION     0.23     0.36  1372.57     0  04:19        0.11
  J78                  JUNCTION     0.23     0.36  1372.44     0  04:19        0.11
  J79                  JUNCTION     0.22     0.36  1372.37     0  04:20        0.11
  J80                  JUNCTION     0.18     0.29  1371.78     0  04:21        0.09
  J81                  JUNCTION     0.29     0.41  1371.40     0  04:23        0.13
  J82                  JUNCTION     0.28     0.40  1371.33     0  04:23        0.12
  J83                  JUNCTION     0.20     0.34  1371.14     0  04:24        0.10
  J84                  JUNCTION     0.18     0.31  1370.95     0  04:10        0.09
  J85                  JUNCTION     0.18     0.31  1370.83     0  04:11        0.09
  J86                  JUNCTION     0.18     0.31  1370.69     0  04:11        0.10
  J87                  JUNCTION     0.18     0.33  1370.52     0  04:12        0.10
  J88                  JUNCTION     0.24     0.44  1370.49     0  04:13        0.13
  J89                  JUNCTION     0.30     0.50  1370.49     0  04:13        0.15
  J90                  JUNCTION     0.26     0.46  1370.41     0  04:14        0.14
  J91                  JUNCTION     0.26     0.46  1370.34     0  04:14        0.14
  J92                  JUNCTION     0.26     0.46  1370.29     0  04:14        0.14
  J93                  JUNCTION     0.26     0.46  1370.19     0  04:15        0.14
  J94                  JUNCTION     0.26     0.47  1370.12     0  04:15        0.14
  J95                  JUNCTION     0.26     0.47  1370.10     0  04:15        0.14
  J96                  JUNCTION     0.26     0.47  1370.02     0  04:15        0.14
  J97                  JUNCTION     0.26     0.47  1369.96     0  04:15        0.14
  J98                  JUNCTION     0.26     0.47  1369.91     0  04:16        0.14
  J99                  JUNCTION     0.25     0.47  1369.87     0  04:16        0.14
  J100                 JUNCTION     0.25     0.47  1369.83     0  04:16        0.14
  J101                 JUNCTION     0.25     0.47  1369.79     0  04:16        0.14
  J102                 JUNCTION     0.18     0.34  1369.61     0  04:16        0.10
  J103                 JUNCTION     0.18     0.34  1369.56     0  04:16        0.10
  J104                 JUNCTION     0.18     0.34  1369.50     0  04:17        0.10
  J105                 JUNCTION     0.18     0.34  1369.47     0  04:17        0.10
  J106                 JUNCTION     0.18     0.33  1369.40     0  04:17        0.10
  J107                 JUNCTION     0.18     0.33  1369.26     0  04:17        0.10
  J108                 JUNCTION     0.18     0.33  1369.12     0  04:17        0.10
  J109                 JUNCTION     0.18     0.33  1369.01     0  04:17        0.10
  J110                 JUNCTION     0.18     0.33  1368.91     0  04:17        0.10
  J111                 JUNCTION     0.18     0.33  1368.81     0  04:18        0.10
  J112                 JUNCTION     0.18     0.33  1368.65     0  04:18        0.10
  J113                 JUNCTION     0.18     0.33  1368.56     0  04:18        0.10
  J114                 JUNCTION     0.18     0.33  1368.44     0  04:18        0.10
  J115                 JUNCTION     0.18     0.33  1368.39     0  04:18        0.10
  J116                 JUNCTION     0.18     0.33  1368.32     0  04:18        0.10
  J117                 JUNCTION     0.18     0.34  1368.21     0  04:18        0.10
  J118                 JUNCTION     0.18     0.34  1368.11     0  04:19        0.10
  J119                 JUNCTION     0.19     0.35  1368.06     0  04:19        0.11
  J120                 JUNCTION     0.21     0.38  1367.98     0  04:19        0.12
  FID2451              JUNCTION     0.18     0.26  1374.55     0  04:08        0.08
  J121                 JUNCTION     0.16     0.31  1371.06     0  04:10        0.10
  J122                 JUNCTION     0.17     0.33  1371.05     0  04:10        0.10
  FID3706              JUNCTION     0.26     0.46  1370.20     0  04:14        0.14
  FID2831              JUNCTION     0.26     0.47  1370.09     0  04:15        0.14
  FID2689              OUTFALL      0.20     0.38  1367.88     0  04:19        0.12
  
  
  *******************
  Node Inflow Summary
  *******************
  
  -------------------------------------------------------------------------------------------------
                                  Maximum  Maximum                  Lateral       Total        Flow
                                  Lateral    Total  Time of Max      Inflow      Inflow     Balance
                                   Inflow   Inflow   Occurrence      Volume      Volume       Error
  Node                 Type           CMS      CMS  days hr:min    10^6 ltr    10^6 ltr     Percent
  -------------------------------------------------------------------------------------------------
  FID1936              JUNCTION     0.102    0.102     0  04:05       0.136       0.136       0.125
  FID1955              JUNCTION     0.095    0.095     0  04:15       0.327       0.327       0.054
  FID1960              JUNCTION     0.044    0.044     0  04:15       0.149       0.149       0.117
  FID1965              JUNCTION     0.022    0.022     0  04:15      0.0752      0.0752       0.232
  FID1968              JUNCTION     0.007    0.007     0  04:15      0.0226      0.0226       0.776
  FID2239              JUNCTION     0.008    0.008     0  04:05      0.0237      0.0237       0.816
  FID2241              JUNCTION     0.000    0.007     0  04:05           0      0.0221       0.791
  FID2242              JUNCTION     0.007    0.007     0  04:05      0.0223      0.0223       0.796
  FID2244              JUNCTION     0.003    0.003     0  03:30     0.00865     0.00865       2.055
  FID2440              JUNCTION     0.000    1.080     0  04:09           0        14.9       0.097
  FID2442              JUNCTION     0.000    0.000     0  00:00           0           0       0.000 ltr
  FID2446              JUNCTION     0.076    0.076     0  04:05      0.0962      0.0962       0.178
  FID2447              JUNCTION     0.000    0.076     0  04:05           0       0.096       0.173
  FID2455              JUNCTION     0.054    1.132     0  04:10       0.172          15       0.091
  FID2711              JUNCTION     0.000    0.021     0  04:05           0      0.0285       0.604
  FID2719              JUNCTION     0.082    0.082     0  04:05       0.133       0.133       0.131
  FID2720              JUNCTION     0.021    0.021     0  04:05      0.0287      0.0287       0.656
  FID2824              JUNCTION     0.000    0.002     0  04:10    0.000394     0.00578       3.080
  FID2827              JUNCTION     0.000    0.002     0  04:10    0.000446     0.00552       2.506
  FID2828              JUNCTION     0.002    0.002     0  04:10     0.00526     0.00526       3.708
  FID2832              JUNCTION     0.000    0.104     0  04:10           0       0.341       0.051
  FID2833              JUNCTION     0.104    0.104     0  04:10       0.341       0.341       0.063
  FID2839              JUNCTION     0.114    0.114     0  04:10       0.502       0.502       0.036
  FID2873              JUNCTION     0.014    0.014     0  04:10      0.0448      0.0448       0.403
  FID2964              JUNCTION     0.009    0.009     0  04:10      0.0392      0.0392       0.588
  FID2965              JUNCTION     0.000    1.556     0  04:12           0        16.2       0.106
  FID4584              JUNCTION     0.000    0.000     0  03:55           0    0.000241     219.790
  FID5068              JUNCTION     0.004    0.004     0  04:05      0.0106      0.0106       1.664
  FID5072              JUNCTION     0.056    1.208     0  04:14       0.174        15.2       0.077
  FID5140              JUNCTION     0.151    0.151     0  03:30       0.489       0.489       0.118
  FID5435              JUNCTION     0.073    0.073     0  04:05       0.342       0.342       0.054
  FID5437              JUNCTION     0.001    0.001     0  04:05      0.0029      0.0029       6.391
  FID5503              JUNCTION     0.000    0.000     0  03:55    0.000422    0.000422      70.421
  FID5504              JUNCTION     0.042    0.042     0  04:10       0.135       0.135       0.130
  FID5527              JUNCTION     0.009    0.009     0  04:10       0.028       0.028       0.613
  FID5568              JUNCTION     0.002    1.202     0  04:17     0.00415        15.1       0.288
  FID5784              JUNCTION     0.000    1.373     0  04:20           0        15.7       0.040
  FID5785              JUNCTION     0.000    0.008     0  04:05           0      0.0235       0.727
  AFID6926             JUNCTION     0.042    0.042     0  04:15       0.139       0.139       0.126
  AFID7360             JUNCTION     0.000    1.556     0  04:12    0.000254        16.1       0.072
  AFID7363             JUNCTION     0.000    1.556     0  04:12           0        16.1       0.035
  AFID7376             JUNCTION     0.110    0.110     0  04:10        0.37        0.37       0.119
  AFID7377             JUNCTION     0.000    1.543     0  04:10           0        16.2       0.045
  AFID7705             JUNCTION     0.000    0.609     0  04:15           0        14.1       0.163
  AFID7706             JUNCTION     0.000    0.565     0  04:15           0        13.9       0.170
  AFID7792             JUNCTION     0.113    0.113     0  04:05       0.375       0.375       0.064
  AFID8223             JUNCTION     0.000    1.367     0  04:20           0        15.7       0.010
  J1                   JUNCTION     0.661    0.661     0  04:15          21          21       0.097
  FID4901              JUNCTION     0.000    0.466     0  04:15           0        13.8       0.113
  J9                   JUNCTION     0.000    0.708     0  00:01           0          21       0.177
  J11                  JUNCTION     0.000    0.661     0  04:15           0        20.9       0.218
  J12                  JUNCTION     0.004    0.665     0  04:15      0.0139        20.9       0.241
  J13                  JUNCTION    -0.220    0.665     0  04:16       -7.13        20.9      -0.117
  FID4902              JUNCTION     0.000    0.473     0  04:15           0        13.8       0.182
  J14                  JUNCTION     0.175    0.743     0  04:05       0.291        14.2       0.090
  J15                  JUNCTION     0.222    0.988     0  04:06       0.406        14.6       0.069
  J16                  JUNCTION     0.005    0.990     0  04:06     0.00564        14.6       0.078
  FID2449              JUNCTION     0.001    0.980     0  04:07    0.000813        14.6       0.623
  J17                  JUNCTION     0.081    1.315     0  04:10       0.255        15.3       0.037
  J19                  JUNCTION     0.009    1.197     0  04:12      0.0222        15.2       0.488
  FID5069              JUNCTION     0.000    1.205     0  04:15           0        15.2       0.084
  FID5139              JUNCTION     0.000    1.327     0  04:18           0        15.6       0.012
  J24                  JUNCTION     0.008    1.208     0  04:18      0.0253        15.1       0.036
  FID4984              JUNCTION     0.000    1.379     0  04:20           0        15.7       0.322
  FID2669              JUNCTION     0.000    1.876     0  04:18           0        17.1       0.029
  FID2712              JUNCTION     0.000    1.827     0  04:17           0          17       0.038
  FID2718              JUNCTION     0.000    1.821     0  04:16           0          17       0.027
  FID2838              JUNCTION     0.000    1.683     0  04:14           0        16.6       0.100
  FID2825              JUNCTION     0.000    1.579     0  04:14           0        16.2       0.170
  FID2823              JUNCTION     0.000    1.579     0  04:13           0        16.2       0.268
  FID5505              JUNCTION     0.000    1.585     0  04:13           0        16.2       0.055
  FID5436              JUNCTION     0.000    1.443     0  04:21           0          16       0.367
  FID5438              JUNCTION     0.000    1.380     0  04:21           0        15.6       0.062
  J49                  JUNCTION     0.000    0.473     0  04:15           0        13.8       0.284
  J50                  JUNCTION     0.000    0.473     0  04:18    0.000167        13.8       0.558
  J51                  JUNCTION     0.000    0.479     0  04:19           0        13.7       0.496
  J52                  JUNCTION     0.000    0.482     0  04:19           0        13.6       0.155
  J53                  JUNCTION     0.000    0.610     0  04:15           0        13.9       0.081
  J54                  JUNCTION     0.000    0.610     0  04:16           0          14       0.127
  J55                  JUNCTION     0.000    0.608     0  04:15           0          14       0.147
  J56                  JUNCTION     0.000    0.608     0  04:15           0          14       0.148
  J57                  JUNCTION     0.000    0.608     0  04:15           0          14       0.166
  J58                  JUNCTION     0.001    0.609     0  04:16     0.00407          14       0.177
  FID1935              JUNCTION     0.000    0.839     0  04:05           0        14.3       0.123
  J59                  JUNCTION     0.000    0.835     0  04:05           0        14.3       0.146
  J60                  JUNCTION     0.005    0.833     0  04:05     0.00567        14.3       0.233
  J61                  JUNCTION     0.000    0.829     0  04:06           0        14.3       0.158
  J62                  JUNCTION     0.000    0.830     0  04:06           0        14.3       0.068
  J63                  JUNCTION     0.000    0.833     0  04:07           0        14.2       0.065
  J64                  JUNCTION     0.000    0.991     0  04:07           0        14.6       0.077
  J65                  JUNCTION     0.014    1.045     0  04:07      0.0181        14.6       0.405
  J66                  JUNCTION     0.000    1.080     0  04:09           0        14.9       0.126
  J67                  JUNCTION     0.000    1.082     0  04:09           0        14.9       0.189
  J68                  JUNCTION     0.005    1.086     0  04:10      0.0141        14.9       0.197
  J69                  JUNCTION     0.000    1.246     0  04:10           0        15.3       0.206
  J70                  JUNCTION     0.003    1.191     0  04:11     0.00708        15.2       0.256
  J71                  JUNCTION     0.000    1.191     0  04:11           0        15.2       0.170
  J72                  JUNCTION     0.006    1.178     0  04:13      0.0191        15.1       0.658
  J73                  JUNCTION     0.000    1.201     0  04:15           0        15.2       0.163
  J74                  JUNCTION     0.000    1.198     0  04:15           0        15.2       0.235
  J75                  JUNCTION     0.004    1.199     0  04:16     0.00736        15.2       0.354
  J76                  JUNCTION     0.000    1.326     0  04:18           0        15.6       0.091
  J77                  JUNCTION     0.049    1.364     0  04:19       0.162        15.7       0.164
  J78                  JUNCTION     0.000    1.364     0  04:19           0        15.7       0.121
  J79                  JUNCTION     0.000    1.364     0  04:20           0        15.7       0.044
  J80                  JUNCTION     0.006    1.387     0  04:20      0.0187        15.7       0.259
  J81                  JUNCTION     0.001    1.453     0  04:22     0.00327        15.9       0.535
  J82                  JUNCTION     0.000    1.446     0  04:23           0        15.9       0.195
  J83                  JUNCTION     0.000    1.447     0  04:24           0        15.8       0.105
  J84                  JUNCTION     0.000    1.543     0  04:11           0        16.2       0.081
  J85                  JUNCTION     0.000    1.545     0  04:11           0        16.2       0.149
  J86                  JUNCTION     0.000    1.547     0  04:11           0        16.1       0.150
  J87                  JUNCTION     0.002    1.557     0  04:12     0.00504        16.1       0.056
  J88                  JUNCTION     0.000    1.554     0  04:12           0        16.1       0.093
  J89                  JUNCTION     0.000    1.583     0  04:13           0        16.2       0.170
  J90                  JUNCTION     0.000    1.686     0  04:14           0        16.6       0.050
  J91                  JUNCTION     0.000    1.686     0  04:14           0        16.6       0.073
  J92                  JUNCTION     0.000    1.687     0  04:14    2.05e-06        16.6       0.090
  J93                  JUNCTION     0.000    1.701     0  04:15           0        16.6       0.048
  J94                  JUNCTION     0.000    1.703     0  04:15    3.67e-06        16.6       0.056
  J95                  JUNCTION     0.000    1.703     0  04:15           0        16.6       0.021
  J96                  JUNCTION     0.000    1.791     0  04:15           0        16.9       0.080
  J97                  JUNCTION     0.000    1.792     0  04:16           0        16.9       0.069
  J98                  JUNCTION     0.000    1.793     0  04:16           0        16.9       0.061
  J99                  JUNCTION     0.000    1.793     0  04:16           0        16.9       0.053
  J100                 JUNCTION     0.000    1.794     0  04:16           0        16.9       0.045
  J101                 JUNCTION     0.000    1.794     0  04:16           0        16.9       0.062
  J102                 JUNCTION     0.000    1.804     0  04:16           0        16.9       0.032
  J103                 JUNCTION     0.000    1.821     0  04:16           0          17       0.030
  J104                 JUNCTION     0.000    1.828     0  04:17           0          17       0.040
  J105                 JUNCTION     0.000    1.828     0  04:17           0          17       0.050
  J106                 JUNCTION     0.000    1.828     0  04:17           0          17       0.056
  J107                 JUNCTION     0.000    1.829     0  04:17           0          17       0.053
  J108                 JUNCTION     0.000    1.831     0  04:17     1.3e-05          17       0.048
  J109                 JUNCTION     0.000    1.833     0  04:17           0          17       0.041
  J110                 JUNCTION     0.000    1.835     0  04:17           0          17       0.039
  J111                 JUNCTION     0.000    1.837     0  04:18    0.000114        16.9       0.029
  J112                 JUNCTION     0.000    1.877     0  04:18           0        17.1       0.041
  J113                 JUNCTION     0.000    1.880     0  04:18           0        17.1       0.040
  J114                 JUNCTION     0.000    1.882     0  04:18           0        17.1       0.035
  J115                 JUNCTION     0.000    1.883     0  04:18           0        17.1       0.025
  J116                 JUNCTION     0.000    1.885     0  04:18    3.61e-06        17.1       0.032
  J117                 JUNCTION     0.000    1.887     0  04:18           0          17       0.040
  J118                 JUNCTION     0.000    1.890     0  04:19           0          17       0.035
  J119                 JUNCTION     0.000    1.891     0  04:19           0          17       0.033
  J120                 JUNCTION     0.000    1.893     0  04:19           0          17       0.043
  FID2451              JUNCTION     0.000    0.984     0  04:08           0        14.6       0.094
  J121                 JUNCTION     0.003    1.445     0  04:24     0.00988        15.8       0.041
  J122                 JUNCTION     0.000    1.446     0  04:24    0.000472        15.8       0.044
  FID3706              JUNCTION     0.000    1.700     0  04:15           0        16.6       0.073
  FID2831              JUNCTION     0.000    1.790     0  04:15           0        16.9       0.048
  FID2689              OUTFALL      0.000    1.896     0  04:19           0          17       0.000
  
  
  **********************
  Node Surcharge Summary
  **********************
  
  No nodes were surcharged.
  
  
  *********************
  Node Flooding Summary
  *********************
  
  No nodes were flooded.
  
  
  ***********************
  Outfall Loading Summary
  ***********************
  
  -----------------------------------------------------------------------------------------------------
                         Flow       Avg       Max       Total         Total         Total         Total
                         Freq      Flow      Flow      Volume           TSS            TP           TDP
  Outfall Node           Pcnt       CMS       CMS    10^6 ltr            kg            kg            kg
  -----------------------------------------------------------------------------------------------------
  FID2689               92.22     0.669     1.896      17.021      6496.246         3.589         3.471
  -----------------------------------------------------------------------------------------------------
  System                92.22     0.669     1.896      17.021      6496.246         3.589         3.471
  
  
  ********************
  Link Flow Summary
  ********************
  
  -----------------------------------------------------------------------------
                                 Maximum  Time of Max   Maximum    Max/    Max/
                                  |Flow|   Occurrence   |Veloc|    Full    Full
  Link                 Type          CMS  days hr:min     m/sec    Flow   Depth
  -----------------------------------------------------------------------------
  FID1123              CONDUIT     0.014     0  04:10      1.10    0.11    0.23
  FID1139              CONDUIT     0.081     0  04:05      2.14    0.29    0.37
  FID1148              CONDUIT     0.104     0  04:10      1.06    0.13    0.21
  FID1149              CONDUIT     0.104     0  04:10      3.44    0.02    0.09
  FID3364              CONDUIT     0.110     0  04:10      1.57    0.04    0.18
  FID3671              CONDUIT     0.007     0  04:15      1.59    0.02    0.11
  FID3672              CONDUIT     0.022     0  04:15      2.27    0.08    0.19
  FID3762              CONDUIT     0.044     0  04:15      3.32    0.06    0.17
  FID3765              CONDUIT     0.095     0  04:15      4.37    0.13    0.25
  FID4112              CONDUIT     0.102     0  04:05      2.45    0.09    0.20
  FID4186              CONDUIT     0.007     0  04:05      1.35    0.02    0.09
  FID4187              CONDUIT     0.007     0  04:05      2.11    0.01    0.07
  FID4201              CONDUIT     0.076     0  04:05      1.63    0.38    0.43
  FID4202              CONDUIT     0.076     0  04:05      2.08    0.27    0.36
  FID4203              CONDUIT     0.000     0  00:00      0.00    0.00    0.16
  FID4299              CONDUIT     0.004     0  04:05      1.27    0.01    0.06
  FID4372              CONDUIT     0.150     0  03:30      2.06    0.04    0.16
  FID4498              CONDUIT     0.009     0  04:10      0.78    0.03    0.24
  FID4806              CONDUIT     0.073     0  04:05      3.13    0.01    0.08
  FID4807              CONDUIT     0.001     0  04:05      0.97    0.00    0.04
  FID4882              CONDUIT     0.000     0  04:10      0.64    0.00    0.06
  FID4884              CONDUIT     0.042     0  04:10      2.65    0.01    0.06
  FID4914              CONDUIT     0.009     0  04:10      0.26    0.02    0.38
  FID4915              CONDUIT     0.002     0  04:10      0.26    0.03    0.11
  FID4916              CONDUIT     0.002     0  04:10      0.35    0.02    0.10
  FID4917              CONDUIT     0.002     0  04:10      1.25    0.00    0.04
  FID5307              CONDUIT     0.008     0  04:05      0.60    0.07    0.17
  FID5308              CONDUIT     0.003     0  03:30      1.56    0.01    0.06
  FID5312              CONDUIT     0.008     0  04:05      0.83    0.02    0.10
  FID5865              CONDUIT     0.114     0  04:10      3.83    0.03    0.12
  C9                   CHANNEL     0.708     0  00:01      0.98    0.02    0.32
  C12                  CHANNEL     0.661     0  04:15      1.21    0.08    0.26
  C13                  CHANNEL     0.665     0  04:16      1.59    0.08    0.27
  C14                  CHANNEL     0.448     0  00:06      1.26    0.05    0.28
  C52                  CONDUIT     0.113     0  04:05      2.74    0.09    0.20
  C130                 CONDUIT     0.021     0  04:05      0.69    0.19    0.24
  C131                 CONDUIT     0.021     0  04:05      2.37    0.02    0.10
  C139                 CONDUIT     0.000     0  04:20      0.03    0.00    0.20
  C191                 CHANNEL     0.473     0  04:15      1.33    0.05    0.33
  C193                 CHANNEL     0.479     0  04:19      0.91    0.05    0.44
  C194                 CHANNEL     0.482     0  04:19      0.59    0.06    0.49
  C195                 CHANNEL     0.483     0  04:19      0.81    0.02    0.39
  C196                 CONDUIT     0.466     0  04:15      0.87    0.09    0.33
  C197                 CONDUIT     0.566     0  04:16      0.37    0.07    0.52
  C198                 CHANNEL     0.608     0  04:15      0.53    0.03    0.29
  C199                 CHANNEL     0.608     0  04:15      0.66    0.69    0.31
  C200                 CHANNEL     0.608     0  04:15      0.85    0.63    0.28
  C201                 CHANNEL     0.608     0  04:16      0.82    0.05    0.22
  C202                 CHANNEL     0.610     0  04:16      0.83    0.05    0.22
  C203                 CHANNEL     0.610     0  04:15      0.84    0.05    0.23
  C204                 CHANNEL     0.611     0  04:08      1.16    0.05    0.24
  C205                 CONDUIT     0.739     0  04:05      0.62    0.13    0.30
  C206                 CHANNEL     0.835     0  04:05      0.93    0.06    0.25
  C207                 CHANNEL     0.830     0  04:05      0.92    0.06    0.25
  C208                 CHANNEL     0.829     0  04:06      0.96    0.06    0.24
  C209                 CHANNEL     0.830     0  04:06      1.02    0.06    0.23
  C210                 CHANNEL     0.833     0  04:07      1.27    0.07    0.27
  C211                 CHANNEL     0.838     0  04:07      1.13    0.08    0.24
  C212                 CONDUIT     0.989     0  04:06      0.85    0.15    0.29
  C213                 CHANNEL     0.991     0  04:07      1.27    0.09    0.25
  C214                 CHANNEL     1.039     0  04:07      1.74    0.10    0.22
  C215                 CONDUIT     0.980     0  04:07      0.88    0.15    0.28
  C216                 CONDUIT     0.968     0  04:09      1.16    0.19    0.25
  C217                 CONDUIT     0.986     0  04:09      1.01    0.10    0.20
  C218                 CHANNEL     1.080     0  04:09      1.19    0.10    0.28
  C219                 CHANNEL     1.082     0  04:09      1.21    0.10    0.28
  C220                 CHANNEL     1.083     0  04:10      1.27    0.10    0.27
  C221                 CHANNEL     1.091     0  04:10      1.50    0.10    0.24
  C222                 CONDUIT     1.257     0  04:10      1.60    0.22    0.22
  C223                 CHANNEL     1.246     0  04:10      1.31    0.04    0.24
  C224                 CHANNEL     1.189     0  04:11      1.21    0.20    0.42
  C225                 CHANNEL     1.191     0  04:11      1.33    0.20    0.39
  C226                 CHANNEL     1.193     0  04:12      1.86    0.20    0.34
  C227                 CONDUIT     1.174     0  04:13      0.89    0.25    0.38
  C228                 CHANNEL     1.173     0  04:14      1.76    0.12    0.32
  C229                 CONDUIT     1.203     0  04:14      0.67    0.06    0.23
  C230                 CHANNEL     1.201     0  04:15      1.67    0.13    0.34
  C231                 CHANNEL     1.198     0  04:15      1.67    0.13    0.34
  C232                 CHANNEL     1.197     0  04:16      1.67    0.13    0.34
  C233                 CHANNEL     1.200     0  04:17      1.75    0.13    0.33
  C234                 CONDUIT     1.201     0  04:18      1.11    0.13    0.26
  C235                 CHANNEL     1.213     0  04:18      1.71    0.13    0.34
  C236                 CHANNEL     1.326     0  04:18      1.63    0.17    0.37
  C237                 CHANNEL     1.321     0  04:19      1.62    0.16    0.38
  C238                 CHANNEL     1.364     0  04:19      1.66    0.17    0.38
  C239                 CHANNEL     1.364     0  04:20      1.66    0.17    0.38
  C240                 CHANNEL     1.364     0  04:20      1.66    0.17    0.38
  C241                 CHANNEL     1.367     0  04:20      1.76    0.17    0.36
  C242                 CONDUIT     1.373     0  04:20      1.12    0.13    0.29
  C243                 CHANNEL     1.382     0  04:20      1.91    0.17    0.34
  C244                 CHANNEL     1.380     0  04:21      3.00    0.06    0.19
  C245                 CONDUIT     1.380     0  04:21      1.20    0.10    0.28
  C246                 CHANNEL     1.447     0  04:22      1.35    0.12    0.36
  C247                 CHANNEL     1.446     0  04:23      1.40    0.12    0.35
  C248                 CHANNEL     1.447     0  04:24      1.63    0.12    0.32
  C249                 CHANNEL     1.444     0  04:24      1.76    0.15    0.31
  C250                 CONDUIT     1.446     0  04:24      1.42    0.14    0.25
  C251                 CONDUIT     1.446     0  04:25      1.35    0.14    0.27
  C252                 CHANNEL     1.543     0  04:11      3.30    0.16    0.31
  C253                 CHANNEL     1.545     0  04:11      1.60    0.09    0.29
  C254                 CHANNEL     1.547     0  04:11      7.04    0.09    0.29
  C255                 CHANNEL     1.548     0  04:12      4.52    0.09    0.30
  C256                 CHANNEL     1.556     0  04:12      4.04    0.09    0.31
  C257                 CHANNEL     1.556     0  04:12      4.70    0.09    0.32
  C258                 CONDUIT     1.556     0  04:12      1.40    0.15    0.27
  C259                 CHANNEL     1.554     0  04:12      2.93    0.09    0.38
  C260                 CHANNEL     1.549     0  04:13      1.93    0.09    0.43
  C261                 CHANNEL     1.583     0  04:13      3.09    0.09    0.46
  C262                 CHANNEL     1.579     0  04:13      1.80    0.09    0.53
  C263                 CHANNEL     1.578     0  04:14      1.28    0.10    0.37
  C264                 CONDUIT     1.581     0  04:14      1.00    0.21    0.38
  C265                 CHANNEL     1.686     0  04:14      1.64    0.10    0.30
  C266                 CHANNEL     1.686     0  04:14      1.79    0.09    0.32
  C267                 CHANNEL     1.687     0  04:14      1.78    0.09    0.32
  C268                 CHANNEL     1.689     0  04:15      1.77    0.09    0.32
  C269                 CHANNEL     1.701     0  04:15      1.77    0.09    0.32
  C270                 CHANNEL     1.703     0  04:15      1.76    0.09    0.32
  C271                 CHANNEL     1.703     0  04:15      1.75    0.09    0.33
  C272                 CHANNEL     1.703     0  04:15      1.74    0.09    0.33
  C273                 CHANNEL     1.791     0  04:15      1.83    0.09    0.33
  C274                 CHANNEL     1.792     0  04:16      1.83    0.09    0.33
  C275                 CHANNEL     1.793     0  04:16      1.83    0.09    0.33
  C276                 CHANNEL     1.793     0  04:16      1.83    0.09    0.33
  C277                 CHANNEL     1.794     0  04:16      1.84    0.09    0.33
  C278                 CHANNEL     1.794     0  04:16      1.84    0.09    0.33
  C279                 CHANNEL     1.804     0  04:16      2.25    0.09    0.28
  C280                 CHANNEL     1.793     0  04:16      1.71    0.16    0.35
  C281                 CHANNEL     1.821     0  04:16      1.74    0.16    0.35
  C282                 CHANNEL     1.822     0  04:17      1.74    0.16    0.35
  C283                 CHANNEL     1.828     0  04:17      1.74    0.16    0.35
  C284                 CHANNEL     1.828     0  04:17      1.74    0.16    0.35
  C285                 CHANNEL     1.828     0  04:17      1.80    0.16    0.34
  C286                 CHANNEL     1.829     0  04:17      2.35    0.12    0.33
  C287                 CHANNEL     1.831     0  04:17      2.35    0.12    0.33
  C288                 CHANNEL     1.833     0  04:17      2.35    0.12    0.33
  C289                 CHANNEL     1.835     0  04:17      2.35    0.12    0.33
  C290                 CHANNEL     1.837     0  04:18      2.34    0.12    0.33
  C291                 CHANNEL     1.838     0  04:18      2.33    0.12    0.34
  C292                 CHANNEL     1.877     0  04:18      2.37    0.12    0.34
  C293                 CHANNEL     1.880     0  04:18      2.37    0.12    0.34
  C294                 CHANNEL     1.882     0  04:18      2.37    0.12    0.34
  C295                 CHANNEL     1.883     0  04:18      2.37    0.12    0.34
  C296                 CHANNEL     1.885     0  04:18      2.36    0.12    0.34
  C297                 CHANNEL     1.887     0  04:18      2.34    0.12    0.34
  C298                 CHANNEL     1.890     0  04:19      2.30    0.12    0.35
  C299                 CHANNEL     1.891     0  04:19      2.22    0.12    0.35
  C300                 CHANNEL     1.893     0  04:19      2.07    0.12    0.37
  C301                 CHANNEL     1.896     0  04:19      2.54    0.09    0.30
  C302                 CHANNEL     0.661     0  04:15      0.93    0.03    0.24
  C303                 CHANNEL     0.473     0  04:18      1.16    0.05    0.37
  C353                 CONDUIT     0.042     0  04:15      2.58    0.01    0.06
  
  
  ***************************
  Flow Classification Summary
  ***************************
  
  -------------------------------------------------------------------------------------
                      Adjusted    ---------- Fraction of Time in Flow Class ---------- 
                       /Actual         Up    Down  Sub   Sup   Up    Down  Norm  Inlet 
  Conduit               Length    Dry  Dry   Dry   Crit  Crit  Crit  Crit  Ltd   Ctrl  
  -------------------------------------------------------------------------------------
  FID1123                 1.00   0.24  0.00  0.00  0.00  0.00  0.00  0.76  0.00  0.00
  FID1139                 1.00   0.23  0.00  0.00  0.00  0.00  0.00  0.77  0.00  0.00
  FID1148                 1.00   0.21  0.00  0.00  0.25  0.07  0.00  0.46  0.00  0.00
  FID1149                 1.00   0.22  0.00  0.00  0.00  0.00  0.00  0.78  0.00  0.00
  FID3364                 1.00   0.04  0.17  0.00  0.46  0.29  0.00  0.04  0.67  0.00
  FID3671                 1.00   0.25  0.00  0.00  0.00  0.00  0.00  0.75  0.00  0.00
  FID3672                 1.00   0.25  0.00  0.00  0.00  0.00  0.00  0.75  0.00  0.00
  FID3762                 1.00   0.24  0.00  0.00  0.00  0.00  0.00  0.76  0.00  0.00
  FID3765                 1.00   0.24  0.00  0.00  0.00  0.00  0.00  0.76  0.00  0.00
  FID4112                 1.00   0.23  0.00  0.00  0.00  0.00  0.00  0.77  0.00  0.00
  FID4186                 1.00   0.29  0.00  0.00  0.00  0.39  0.00  0.33  0.00  0.00
  FID4187                 1.00   0.29  0.00  0.00  0.00  0.00  0.00  0.71  0.00  0.00
  FID4201                 1.00   0.23  0.00  0.00  0.39  0.08  0.00  0.31  0.00  0.00
  FID4202                 1.00   0.24  0.00  0.00  0.00  0.00  0.00  0.76  0.00  0.00
  FID4203                 1.00   0.24  0.76  0.00  0.00  0.00  0.00  0.00  0.00  0.00
  FID4299                 1.00   0.29  0.00  0.00  0.00  0.00  0.00  0.71  0.00  0.00
  FID4372                 1.00   0.02  0.23  0.00  0.59  0.12  0.00  0.04  0.63  0.00
  FID4498                 1.00   0.05  0.17  0.00  0.67  0.03  0.00  0.08  0.61  0.00
  FID4806                 1.00   0.24  0.00  0.00  0.00  0.00  0.00  0.76  0.00  0.00
  FID4807                 1.00   0.30  0.00  0.00  0.00  0.00  0.00  0.70  0.00  0.00
  FID4882                 1.00   0.35  0.00  0.00  0.02  0.02  0.00  0.61  0.03  0.00
  FID4884                 1.00   0.22  0.00  0.00  0.00  0.00  0.00  0.78  0.00  0.00
  FID4914                 1.00   0.03  0.22  0.00  0.76  0.00  0.00  0.00  0.67  0.00
  FID4915                 1.00   0.29  0.00  0.00  0.69  0.00  0.00  0.02  0.43  0.00
  FID4916                 1.00   0.30  0.00  0.00  0.51  0.00  0.00  0.18  0.22  0.00
  FID4917                 1.00   0.32  0.00  0.00  0.00  0.00  0.00  0.68  0.00  0.00
  FID5307                 1.00   0.27  0.00  0.00  0.49  0.00  0.00  0.24  0.00  0.00
  FID5308                 1.00   0.29  0.00  0.00  0.00  0.00  0.00  0.71  0.00  0.00
  FID5312                 1.00   0.29  0.00  0.00  0.00  0.00  0.00  0.71  0.00  0.00
  FID5865                 1.00   0.21  0.00  0.00  0.00  0.00  0.00  0.79  0.00  0.00
  C9                      1.00   0.00  0.00  0.00  1.00  0.00  0.00  0.00  0.00  0.00
  C12                     1.00   0.00  0.00  0.00  1.00  0.00  0.00  0.00  0.00  0.00
  C13                     1.00   0.00  0.00  0.00  1.00  0.00  0.00  0.00  0.00  0.00
  C14                     1.00   0.00  0.00  0.00  1.00  0.00  0.00  0.00  0.00  0.00
  C52                     1.00   0.01  0.23  0.00  0.23  0.24  0.00  0.29  0.44  0.00
  C130                    1.00   0.24  0.00  0.00  0.45  0.00  0.00  0.31  0.00  0.00
  C131                    1.00   0.29  0.00  0.00  0.00  0.00  0.00  0.71  0.00  0.00
  C139                    1.00   0.21  0.60  0.00  0.15  0.00  0.03  0.00  0.51  0.00
  C191                    1.00   0.00  0.00  0.00  1.00  0.00  0.00  0.00  0.00  0.00
  C193                    1.00   0.00  0.00  0.00  1.00  0.00  0.00  0.00  0.00  0.00
  C194                    1.00   0.00  0.00  0.00  1.00  0.00  0.00  0.00  0.00  0.00
  C195                    1.00   0.00  0.00  0.00  1.00  0.00  0.00  0.00  0.00  0.00
  C196                    1.00   0.00  0.00  0.00  1.00  0.00  0.00  0.00  0.00  0.00
  C197                    1.00   0.00  0.00  0.00  1.00  0.00  0.00  0.00  0.00  0.00
  C198                    1.00   0.00  0.00  0.00  1.00  0.00  0.00  0.00  0.00  0.00
  C199                    1.00   0.00  0.00  0.00  1.00  0.00  0.00  0.00  0.00  0.00
  C200                    1.00   0.00  0.00  0.00  1.00  0.00  0.00  0.00  0.00  0.00
  C201                    1.00   0.00  0.00  0.00  1.00  0.00  0.00  0.00  0.01  0.00
  C202                    1.00   0.00  0.00  0.00  1.00  0.00  0.00  0.00  0.00  0.00
  C203                    1.00   0.00  0.00  0.00  1.00  0.00  0.00  0.00  0.00  0.00
  C204                    1.00   0.00  0.00  0.00  0.99  0.00  0.00  0.00  0.00  0.00
  C205                    1.00   0.00  0.00  0.00  1.00  0.00  0.00  0.00  0.00  0.00
  C206                    1.00   0.00  0.00  0.00  0.99  0.00  0.00  0.00  0.01  0.00
  C207                    1.00   0.01  0.00  0.00  0.99  0.00  0.00  0.00  0.00  0.00
  C208                    1.00   0.01  0.00  0.00  0.99  0.00  0.00  0.00  0.00  0.00
  C209                    1.00   0.01  0.00  0.00  0.99  0.00  0.00  0.00  0.00  0.00
  C210                    1.00   0.01  0.00  0.00  0.03  0.96  0.00  0.00  0.87  0.00
  C211                    1.00   0.01  0.00  0.00  0.99  0.00  0.00  0.00  0.00  0.00
  C212                    1.00   0.01  0.00  0.00  0.99  0.00  0.00  0.00  0.00  0.00
  C213                    1.00   0.01  0.00  0.00  0.99  0.00  0.00  0.00  0.00  0.00
  C214                    1.00   0.01  0.00  0.00  0.00  0.99  0.00  0.00  0.00  0.00
  C215                    1.00   0.01  0.00  0.00  0.99  0.00  0.00  0.00  0.94  0.00
  C216                    1.00   0.01  0.00  0.00  0.99  0.00  0.00  0.00  0.00  0.00
  C217                    1.00   0.01  0.00  0.00  0.99  0.00  0.00  0.00  0.00  0.00
  C218                    1.00   0.01  0.00  0.00  0.99  0.00  0.00  0.00  0.00  0.00
  C219                    1.00   0.01  0.00  0.00  0.99  0.00  0.00  0.00  0.00  0.00
  C220                    1.00   0.01  0.00  0.00  0.99  0.00  0.00  0.00  0.00  0.00
  C221                    1.00   0.01  0.00  0.00  0.00  0.99  0.00  0.00  0.00  0.00
  C222                    1.00   0.01  0.00  0.00  0.77  0.22  0.00  0.00  0.00  0.00
  C223                    1.00   0.01  0.00  0.00  0.99  0.00  0.00  0.00  0.91  0.00
  C224                    1.00   0.01  0.00  0.00  0.99  0.00  0.00  0.00  0.00  0.00
  C225                    1.00   0.01  0.00  0.00  0.99  0.00  0.00  0.00  0.00  0.00
  C226                    1.00   0.01  0.00  0.00  0.00  0.99  0.00  0.00  0.00  0.00
  C227                    1.00   0.01  0.00  0.00  0.99  0.00  0.00  0.00  0.91  0.00
  C228                    1.00   0.01  0.00  0.00  0.00  0.99  0.00  0.00  0.04  0.00
  C229                    1.00   0.01  0.00  0.00  0.99  0.00  0.00  0.00  0.00  0.00
  C230                    1.00   0.01  0.00  0.00  0.99  0.00  0.00  0.00  0.15  0.00
  C231                    1.00   0.01  0.00  0.00  0.98  0.00  0.00  0.00  0.37  0.00
  C232                    1.00   0.01  0.00  0.00  0.98  0.00  0.00  0.00  0.13  0.00
  C233                    1.00   0.01  0.00  0.00  0.79  0.19  0.00  0.00  0.00  0.00
  C234                    1.00   0.02  0.00  0.00  0.98  0.00  0.00  0.00  0.00  0.00
  C235                    1.00   0.02  0.00  0.00  0.95  0.03  0.00  0.00  0.01  0.00
  C236                    1.00   0.02  0.00  0.00  0.98  0.00  0.00  0.00  0.03  0.00
  C237                    1.00   0.02  0.00  0.00  0.98  0.00  0.00  0.00  0.37  0.00
  C238                    1.00   0.02  0.00  0.00  0.98  0.00  0.00  0.00  0.15  0.00
  C239                    1.00   0.02  0.00  0.00  0.98  0.00  0.00  0.00  0.06  0.00
  C240                    1.00   0.02  0.00  0.00  0.98  0.00  0.00  0.00  0.00  0.00
  C241                    1.00   0.02  0.00  0.00  0.00  0.98  0.00  0.00  0.76  0.00
  C242                    1.00   0.02  0.00  0.00  0.98  0.00  0.00  0.00  0.00  0.00
  C243                    1.00   0.02  0.00  0.00  0.00  0.98  0.00  0.00  0.00  0.00
  C244                    1.00   0.02  0.00  0.00  0.00  0.98  0.00  0.00  0.71  0.00
  C245                    1.00   0.02  0.00  0.00  0.98  0.00  0.00  0.00  0.00  0.00
  C246                    1.00   0.02  0.00  0.00  0.97  0.01  0.00  0.00  0.01  0.00
  C247                    1.00   0.02  0.00  0.00  0.97  0.01  0.00  0.00  0.00  0.00
  C248                    1.00   0.02  0.00  0.00  0.00  0.98  0.00  0.00  0.00  0.00
  C249                    1.00   0.03  0.00  0.00  0.00  0.97  0.00  0.00  0.30  0.00
  C250                    1.00   0.03  0.00  0.00  0.97  0.00  0.00  0.00  0.00  0.00
  C251                    1.00   0.03  0.00  0.00  0.97  0.00  0.00  0.00  0.00  0.00
  C252                    1.00   0.03  0.00  0.00  0.01  0.96  0.00  0.00  0.25  0.00
  C253                    1.00   0.03  0.00  0.00  0.76  0.21  0.00  0.00  0.29  0.00
  C254                    1.00   0.03  0.00  0.00  0.76  0.21  0.00  0.00  0.18  0.00
  C255                    1.00   0.04  0.00  0.00  0.76  0.21  0.00  0.00  0.07  0.00
  C256                    1.00   0.04  0.00  0.00  0.88  0.08  0.00  0.00  0.04  0.00
  C257                    1.00   0.04  0.00  0.00  0.16  0.80  0.00  0.00  0.22  0.00
  C258                    1.00   0.04  0.00  0.00  0.96  0.00  0.00  0.00  0.00  0.00
  C259                    1.00   0.04  0.00  0.00  0.95  0.00  0.00  0.00  0.00  0.00
  C260                    1.00   0.04  0.00  0.00  0.95  0.00  0.00  0.00  0.00  0.00
  C261                    1.00   0.04  0.00  0.00  0.95  0.00  0.00  0.00  0.00  0.00
  C262                    1.00   0.05  0.00  0.00  0.95  0.00  0.00  0.00  0.00  0.00
  C263                    1.00   0.05  0.00  0.00  0.95  0.00  0.00  0.00  0.00  0.00
  C264                    1.00   0.05  0.00  0.00  0.95  0.00  0.00  0.00  0.00  0.00
  C265                    1.00   0.05  0.00  0.00  0.05  0.89  0.00  0.00  0.00  0.00
  C266                    1.00   0.05  0.00  0.00  0.94  0.00  0.00  0.00  0.53  0.00
  C267                    1.00   0.05  0.00  0.00  0.94  0.00  0.00  0.00  0.50  0.00
  C268                    1.00   0.05  0.00  0.00  0.94  0.00  0.00  0.00  0.47  0.00
  C269                    1.00   0.06  0.00  0.00  0.94  0.00  0.00  0.00  0.04  0.00
  C270                    1.00   0.06  0.00  0.00  0.94  0.00  0.00  0.00  0.16  0.00
  C271                    1.00   0.06  0.00  0.00  0.94  0.00  0.00  0.00  0.00  0.00
  C272                    1.00   0.06  0.00  0.00  0.94  0.00  0.00  0.00  0.00  0.00
  C273                    1.00   0.06  0.00  0.00  0.94  0.00  0.00  0.00  0.15  0.00
  C274                    1.00   0.06  0.00  0.00  0.94  0.00  0.00  0.00  0.11  0.00
  C275                    1.00   0.06  0.00  0.00  0.94  0.00  0.00  0.00  0.08  0.00
  C276                    1.00   0.06  0.00  0.00  0.94  0.00  0.00  0.00  0.04  0.00
  C277                    1.00   0.06  0.00  0.00  0.94  0.00  0.00  0.00  0.01  0.00
  C278                    1.00   0.06  0.00  0.00  0.93  0.00  0.00  0.00  0.00  0.00
  C279                    1.00   0.06  0.00  0.00  0.00  0.93  0.00  0.00  0.12  0.00
  C280                    1.00   0.07  0.00  0.00  0.84  0.10  0.00  0.00  0.16  0.00
  C281                    1.00   0.07  0.00  0.00  0.79  0.14  0.00  0.00  0.20  0.00
  C282                    1.00   0.07  0.00  0.00  0.79  0.14  0.00  0.00  0.12  0.00
  C283                    1.00   0.07  0.00  0.00  0.78  0.15  0.00  0.00  0.09  0.00
  C284                    1.00   0.07  0.00  0.00  0.78  0.16  0.00  0.00  0.08  0.00
  C285                    1.00   0.07  0.00  0.00  0.74  0.19  0.00  0.00  0.12  0.00
  C286                    1.00   0.07  0.00  0.00  0.00  0.93  0.00  0.00  0.54  0.00
  C287                    1.00   0.07  0.00  0.00  0.00  0.93  0.00  0.00  0.55  0.00
  C288                    1.00   0.07  0.00  0.00  0.00  0.93  0.00  0.00  0.55  0.00
  C289                    1.00   0.07  0.00  0.00  0.00  0.93  0.00  0.00  0.54  0.00
  C290                    1.00   0.07  0.00  0.00  0.00  0.93  0.00  0.00  0.48  0.00
  C291                    1.00   0.07  0.00  0.00  0.00  0.93  0.00  0.00  0.03  0.00
  C292                    1.00   0.07  0.00  0.00  0.00  0.93  0.00  0.00  0.55  0.00
  C293                    1.00   0.07  0.00  0.00  0.00  0.93  0.00  0.00  0.55  0.00
  C294                    1.00   0.07  0.00  0.00  0.00  0.93  0.00  0.00  0.54  0.00
  C295                    1.00   0.07  0.00  0.00  0.00  0.93  0.00  0.00  0.38  0.00
  C296                    1.00   0.07  0.00  0.00  0.00  0.92  0.00  0.00  0.26  0.00
  C297                    1.00   0.08  0.00  0.00  0.00  0.92  0.00  0.00  0.15  0.00
  C298                    1.00   0.08  0.00  0.00  0.00  0.92  0.00  0.00  0.00  0.00
  C299                    1.00   0.08  0.00  0.00  0.00  0.92  0.00  0.00  0.00  0.00
  C300                    1.00   0.08  0.00  0.00  0.00  0.92  0.00  0.00  0.00  0.00
  C301                    1.00   0.08  0.00  0.00  0.00  0.92  0.00  0.00  0.56  0.00
  C302                    1.00   0.00  0.00  0.00  1.00  0.00  0.00  0.00  0.00  0.00
  C303                    1.00   0.00  0.00  0.00  1.00  0.00  0.00  0.00  0.00  0.00
  C353                    1.00   0.25  0.00  0.00  0.00  0.00  0.00  0.75  0.00  0.00
  
  
  *************************
  Conduit Surcharge Summary
  *************************
  
  No conduits were surcharged.
  
  
  ***************************
  Link Pollutant Load Summary
  ***************************
  
  --------------------------------------------------------------
                                 TSS            TP           TDP
  Link                            kg            kg            kg
  --------------------------------------------------------------
  FID1123                      5.010         0.021         0.004
  FID1139                    194.108         0.119         0.024
  FID1148                    346.975         0.176         0.042
  FID1149                    245.309         0.176         0.041
  FID3364                    166.378         0.189         0.050
  FID3671                      7.722         0.003         0.004
  FID3672                     45.666         0.038         0.011
  FID3762                    179.319         0.054         0.032
  FID3765                    298.230         0.117         0.055
  FID4112                    105.630         0.061         0.018
  FID4186                     16.163         0.003         0.005
  FID4187                      3.873         0.003         0.005
  FID4201                     53.064         0.035         0.010
  FID4202                     37.028         0.034         0.010
  FID4203                      0.000         0.000         0.000
  FID4299                      2.066         0.003         0.002
  FID4372                   1101.492         0.465         0.527
  FID4498                     32.988         0.011         0.039
  FID4806                    551.400         0.320         0.616
  FID4807                      0.000         0.000         0.000
  FID4882                      0.000         0.000         0.000
  FID4884                     71.496         0.086         0.016
  FID4914                     32.474         0.009         0.008
  FID4915                      0.347         0.003         0.000
  FID4916                      0.001         0.002         0.000
  FID4917                      0.000         0.001         0.000
  FID5307                     10.207         0.023         0.004
  FID5308                      0.941         0.004         0.001
  FID5312                      8.330         0.023         0.004
  FID5865                    400.524         0.062         0.908
  C9                         194.885         1.041         1.291
  C12                        194.164         1.034         1.282
  C13                        216.129         1.047         1.284
  C14                        142.538         0.691         0.850
  C52                        383.655         0.199         0.068
  C130                        19.522         0.042         0.005
  C131                        13.211         0.042         0.005
  C139                         0.000         0.000         0.000
  C191                       195.644         0.729         0.860
  C193                       195.652         0.719         0.846
  C194                       194.649         0.716         0.844
  C195                       194.428         0.714         0.843
  C196                       188.121         0.728         0.858
  C197                       492.535         0.829         0.895
  C198                       671.682         0.882         0.926
  C199                       671.720         0.880         0.924
  C200                       671.406         0.879         0.923
  C201                       672.042         0.877         0.920
  C202                       685.333         0.877         0.921
  C203                       685.152         0.876         0.919
  C204                       684.601         0.875         0.919
  C205                      1062.479         1.025         0.951
  C206                      1167.742         1.085         0.967
  C207                      1168.360         1.086         0.965
  C208                      1190.033         1.085         0.966
  C209                      1188.686         1.081         0.964
  C210                      1188.811         1.081         0.964
  C211                      1188.674         1.080         0.963
  C212                      1627.112         1.230         1.017
  C213                      1630.313         1.232         1.017
  C214                      1630.368         1.231         1.016
  C215                      1695.046         1.248         1.018
  C216                      1677.556         1.231         1.013
  C217                      1714.426         1.264         1.022
  C218                      2097.399         1.462         1.088
  C219                      2099.323         1.462         1.087
  C220                      2100.015         1.461         1.084
  C221                      2142.885         1.462         1.091
  C222                      2375.866         1.554         1.120
  C223                      2721.316         1.710         1.152
  C224                      2729.368         1.713         1.149
  C225                      2769.867         1.711         1.150
  C226                      2768.587         1.709         1.149
  C227                      2846.012         1.733         1.148
  C228                      2834.319         1.705         1.149
  C229                      3191.279         1.815         1.194
  C230                      3189.735         1.816         1.195
  C231                      3206.504         1.822         1.193
  C232                      3196.664         1.816         1.190
  C233                      3250.802         1.823         1.191
  C234                      3216.143         1.811         1.187
  C235                      3239.719         1.821         1.190
  C236                      4342.337         2.286         1.717
  C237                      4366.912         2.292         1.722
  C238                      4624.993         2.438         1.771
  C239                      4609.368         2.433         1.766
  C240                      4596.691         2.429         1.763
  C241                      4598.444         2.433         1.765
  C242                      4616.246         2.458         1.770
  C243                      4675.017         2.476         1.784
  C244                      4646.695         2.458         1.775
  C245                      4652.459         2.459         1.775
  C246                      5318.892         2.807         2.414
  C247                      5248.183         2.786         2.395
  C248                      5281.467         2.793         2.402
  C249                      5234.254         2.781         2.390
  C250                      5236.171         2.783         2.389
  C251                      5239.158         2.784         2.389
  C252                      5402.856         2.971         2.437
  C253                      5424.396         2.976         2.441
  C254                      5432.531         2.977         2.440
  C255                      5425.091         2.974         2.437
  C256                      5448.323         2.981         2.473
  C257                      5449.120         2.981         2.472
  C258                      5452.935         2.981         2.472
  C259                      5476.923         2.987         2.476
  C260                      5453.018         2.980         2.470
  C261                      5531.240         3.067         2.486
  C262                      5568.638         3.074         2.490
  C263                      5540.172         3.065         2.482
  C264                      5537.594         3.064         2.479
  C265                      5926.384         3.122         3.382
  C266                      5937.691         3.124         3.385
  C267                      5934.914         3.123         3.383
  C268                      5948.405         3.125         3.387
  C269                      5931.106         3.141         3.382
  C270                      5946.133         3.143         3.387
  C271                      5933.961         3.140         3.382
  C272                      5932.080         3.140         3.381
  C273                      6193.746         3.320         3.428
  C274                      6191.785         3.318         3.426
  C275                      6189.845         3.317         3.424
  C276                      6189.719         3.316         3.423
  C277                      6187.321         3.315         3.422
  C278                      6188.174         3.315         3.421
  C279                      6188.375         3.315         3.421
  C280                      6185.693         3.313         3.419
  C281                      6378.848         3.432         3.442
  C282                      6382.869         3.432         3.443
  C283                      6396.642         3.474         3.448
  C284                      6398.819         3.475         3.448
  C285                      6401.659         3.475         3.448
  C286                      6403.511         3.475         3.448
  C287                      6404.131         3.474         3.447
  C288                      6402.508         3.473         3.446
  C289                      6402.496         3.473         3.446
  C290                      6403.702         3.473         3.445
  C291                      6399.469         3.472         3.443
  C292                      6491.159         3.591         3.474
  C293                      6490.399         3.590         3.473
  C294                      6492.579         3.590         3.473
  C295                      6488.746         3.589         3.472
  C296                      6490.657         3.589         3.472
  C297                      6494.628         3.590         3.473
  C298                      6496.168         3.590         3.473
  C299                      6493.581         3.589         3.472
  C300                      6498.580         3.590         3.473
  C301                      6496.246         3.589         3.471
  C302                       194.559         1.038         1.288
  C303                       195.466         0.725         0.855
  C353                        84.113         0.117         0.029
  

  Analysis begun on:  Tue Oct 10 16:55:49 2017
  Analysis ended on:  Tue Oct 10 16:56:04 2017
  Total elapsed time: 00:00:15