
  EPA STORM WATER MANAGEMENT MODEL - VERSION 5.1 (Build 5.1.010)
  --------------------------------------------------------------

  WARNING 04: minimum elevation drop used for Conduit C199
  WARNING 04: minimum elevation drop used for Conduit C200
  WARNING 02: maximum depth increased for Node FID1955
  WARNING 02: maximum depth increased for Node FID1960
  WARNING 02: maximum depth increased for Node FID1965
  WARNING 02: maximum depth increased for Node FID1968
  WARNING 02: maximum depth increased for Node FID2244
  WARNING 02: maximum depth increased for Node FID2442
  WARNING 02: maximum depth increased for Node FID2446
  WARNING 02: maximum depth increased for Node FID5504
  WARNING 02: maximum depth increased for Node FID5527
  WARNING 02: maximum depth increased for Node AFID6926
  WARNING 02: maximum depth increased for Node AFID7376
  
  *********************************************************
  NOTE: The summary statistics displayed in this report are
  based on results found at every computational time step,  
  not just on results from each reporting time step.
  *********************************************************
  
  ****************
  Analysis Options
  ****************
  Flow Units ............... CMS
  Process Models:
    Rainfall/Runoff ........ YES
    RDII ................... NO
    Snowmelt ............... NO
    Groundwater ............ NO
    Flow Routing ........... YES
    Ponding Allowed ........ YES
    Water Quality .......... YES
  Infiltration Method ...... GREEN_AMPT
  Flow Routing Method ...... DYNWAVE
  Starting Date ............ MAY-06-2016 15:00:00
  Ending Date .............. MAY-07-2016 00:00:00
  Antecedent Dry Days ...... 0.0
  Report Time Step ......... 00:01:00
  Wet Time Step ............ 00:01:00
  Dry Time Step ............ 01:00:00
  Routing Time Step ........ 5.00 sec
  Variable Time Step ....... YES
  Maximum Trials ........... 8
  Number of Threads ........ 3
  Head Tolerance ........... 0.001500 m
  
  
  **************************        Volume         Depth
  Runoff Quantity Continuity     hectare-m            mm
  **************************     ---------       -------
  Total Precipitation ......         2.583         6.709
  Evaporation Loss .........         0.000         0.000
  Infiltration Loss ........         1.259         3.270
  Surface Runoff ...........         0.971         2.523
  Final Storage ............         0.355         0.921
  Continuity Error (%) .....        -0.068
  
  
  **************************           TSS            TP           TDP
  Runoff Quality Continuity             kg            kg            kg
  **************************    ----------    ----------    ----------
  Initial Buildup ..........         0.000         0.000         0.000
  Surface Buildup ..........     13184.660         5.310        11.869
  Wet Deposition ...........         0.000         0.000         0.000
  Sweeping Removal .........         0.000         0.000         0.000
  Infiltration Loss ........         0.000         0.000         0.000
  BMP Removal ..............         0.693         0.000         0.001
  Surface Runoff ...........      6930.432         2.780         5.725
  Remaining Buildup ........      6253.534         2.529         6.143
  Continuity Error (%) .....         0.000         0.000         0.000
  
  
  **************************        Volume        Volume
  Flow Routing Continuity        hectare-m      10^6 ltr
  **************************     ---------     ---------
  Dry Weather Inflow .......         0.000         0.000
  Wet Weather Inflow .......         0.971         9.714
  Groundwater Inflow .......         0.000         0.000
  RDII Inflow ..............         0.000         0.000
  External Inflow ..........         1.384        13.843
  External Outflow .........         1.826        18.257
  Flooding Loss ............         0.000         0.000
  Evaporation Loss .........         0.000         0.000
  Exfiltration Loss ........         0.000         0.000
  Initial Stored Volume ....         0.000         0.000
  Final Stored Volume ......         0.535         5.355
  Continuity Error (%) .....        -0.234
  
  
  **************************           TSS            TP           TDP
  Quality Routing Continuity            kg            kg            kg
  **************************    ----------    ----------    ----------
  Dry Weather Inflow .......         0.000         0.000         0.000
  Wet Weather Inflow .......      6930.041         2.777         5.717
  Groundwater Inflow .......         0.000         0.000         0.000
  RDII Inflow ..............         0.000         0.000         0.000
  External Inflow ..........       137.985         1.039         1.284
  External Outflow .........      6940.758         3.461         6.541
  Flooding Loss ............         0.000         0.000         0.000
  Exfiltration Loss ........         0.000         0.000         0.000
  Mass Reacted .............         0.000         0.000         0.000
  Initial Stored Mass ......         0.000         0.000         0.000
  Final Stored Mass ........        39.253         0.351         0.495
  Continuity Error (%) .....         1.245         0.082        -0.509
  
  
  *************************
  Highest Continuity Errors
  *************************
  Node FID2824 (1.74%)
  Node J72 (1.34%)
  Node FID2449 (1.23%)
  Node J19 (1.20%)
  Node J81 (1.17%)
  
  
  ***************************
  Time-Step Critical Elements
  ***************************
  Link C241 (92.64%)
  Link C14 (6.53%)
  
  
  ********************************
  Highest Flow Instability Indexes
  ********************************
  All links are stable.
  
  
  *************************
  Routing Time Step Summary
  *************************
  Minimum Time Step           :     0.59 sec
  Average Time Step           :     0.93 sec
  Maximum Time Step           :     5.00 sec
  Percent in Steady State     :     0.00
  Average Iterations per Step :     2.01
  Percent Not Converging      :     0.03
  
  
  ***************************
  Subcatchment Runoff Summary
  ***************************
  
  --------------------------------------------------------------------------------------------------------
                            Total      Total      Total      Total      Total       Total     Peak  Runoff
                           Precip      Runon       Evap      Infil     Runoff      Runoff   Runoff   Coeff
  Subcatchment                 mm         mm         mm         mm         mm    10^6 ltr      CMS
  --------------------------------------------------------------------------------------------------------
  S0                         5.84       0.00       0.00       5.06       0.57        0.00     0.00   0.097
  S1                         5.84       0.00       0.00       2.64       2.32        0.23     0.07   0.397
  S2                         6.35       0.00       0.00       2.00       3.24        0.56     0.19   0.511
  S3                         5.84       0.00       0.00       3.85       1.46        0.05     0.04   0.249
  S4                         5.84       0.00       0.00       2.83       2.19        0.22     0.18   0.375
  S6                         6.35       0.00       0.00       1.11       3.91        0.07     0.02   0.616
  S7                         6.35       0.00       0.00       1.40       2.90        1.13     0.38   0.457
  S8                         6.35       0.00       0.00       1.11       3.92        0.00     0.00   0.617
  S9                         6.35       0.00       0.00       1.82       3.39        0.00     0.00   0.534
  S10                        6.35       0.00       0.00       1.93       3.31        0.01     0.00   0.521
  S11                        6.35       0.00       0.00       5.01       1.00        0.00     0.00   0.158
  S12                        6.35       0.00       0.00       2.16       3.14        0.00     0.00   0.494
  S13                        6.35       0.00       0.00       2.41       2.94        0.22     0.07   0.463
  S14                        6.35       0.00       0.00       4.47       1.41        0.01     0.00   0.222
  S16                        6.35       0.00       0.00       1.62       0.89        0.05     0.01   0.141
  S17                        6.35       0.00       0.00       2.10       3.16        0.61     0.20   0.498
  S18                        6.35       0.00       0.00       1.46       3.66        0.00     0.00   0.577
  S19                        6.35       0.00       0.00       3.50       2.13        0.05     0.02   0.335
  S20                        6.35       0.00       0.00       2.26       3.06        0.02     0.01   0.482
  S21                        6.35       0.00       0.00       4.56       1.71        0.92     0.21   0.270
  S22                        6.35       0.00       0.00       1.75       3.44        0.00     0.00   0.541
  S23                        6.35       0.00       0.00       3.86       1.86        0.03     0.01   0.294
  S24                        6.35       0.00       0.00       3.65       2.02        0.04     0.01   0.318
  S25                        6.35       0.00       0.00       2.47       2.89        0.04     0.01   0.456
  S27                        6.35       0.00       0.00       2.82       2.64        0.01     0.01   0.416
  S28                        5.84       0.00       0.00       5.83       0.01        0.00     0.00   0.001
  S29                        5.84       0.00       0.00       5.80       0.03        0.00     0.00   0.006
  S30                        6.35       0.00       0.00       6.33       0.02        0.00     0.00   0.003
  S31                        6.35       0.00       0.00       6.34       0.01        0.00     0.00   0.001
  S32                        6.35       0.00       0.00       4.70       1.25        0.01     0.00   0.196
  S33                        6.35       0.00       0.00       1.58       3.57        0.04     0.02   0.561
  S34                        6.35       0.00       0.00       3.04       2.22        0.78     0.26   0.349
  S35                        6.35       0.00       0.00       3.63       2.04        0.01     0.00   0.321
  S36                        6.35       0.00       0.00       5.06       0.97        0.01     0.01   0.152
  S37                        6.35       0.00       0.00       1.90       3.33        0.02     0.01   0.524
  S39                        6.35       0.00       0.00       3.78       1.92        0.28     0.10   0.303
  S40                        6.35       0.00       0.00       4.44       1.43        0.03     0.01   0.225
  S41                        6.35       0.00       0.00       2.24       3.07        0.42     0.14   0.483
  S42                        6.35       0.00       0.00       2.63       2.78        0.28     0.10   0.437
  S43                        6.35       0.00       0.00       4.76       1.19        0.02     0.01   0.188
  S44                        6.35       0.00       0.00       2.70       2.72        0.61     0.21   0.429
  S45                        8.13       0.00       0.00       4.58       2.91        0.00     0.00   0.358
  S47                        8.13       0.00       0.00       3.51       3.75        0.16     0.14   0.462
  S48                        8.13       0.00       0.00       4.16       3.26        0.01     0.01   0.401
  S49                        8.13       0.00       0.00       3.66       3.59        0.67     0.49   0.442
  S51                        8.13       0.00       0.00       6.99       0.94        0.01     0.01   0.116
  S52                        8.13       0.00       0.00       3.98       3.36        0.23     0.20   0.414
  S53                        8.13       0.00       0.00       3.83       3.46        0.48     0.38   0.426
  S54                        8.13       0.00       0.00       4.88       2.61        0.25     0.07   0.321
  S55                        8.13       0.00       0.00       3.99       3.31        0.54     0.16   0.408
  S56                        8.13       0.00       0.00       5.90       1.80        0.00     0.00   0.221
  S57                        8.13       0.00       0.00       3.46       3.74        0.04     0.01   0.461
  S58                        8.13       0.00       0.00       4.32       3.05        0.12     0.04   0.375
  S59                        8.13       0.00       0.00       7.00       0.90        0.02     0.01   0.111
  S60                        8.13       0.00       0.00       5.80       1.87        0.05     0.01   0.230
  S61                        8.13       0.00       0.00       7.16       0.78        0.01     0.00   0.096
  S62                        8.13       0.00       0.00       6.67       1.18        0.03     0.03   0.146
  S63                        6.35       0.00       0.00       5.34       0.75        0.01     0.01   0.119
  S64                        6.35       0.00       0.00       2.89       2.59        0.04     0.02   0.408
  S65                        6.35       0.00       0.00       4.24       1.57        0.26     0.09   0.248
  
  
  ****************************
  Subcatchment Washoff Summary
  ****************************
  
  --------------------------------------------------------------
                                 TSS            TP           TDP
  Subcatchment                    kg            kg            kg
  --------------------------------------------------------------
  S0                           0.378         0.000         0.001
  S1                         175.882         0.009         0.091
  S2                         254.329         0.062         0.245
  S3                          21.539         0.008         0.025
  S4                         144.348         0.026         0.117
  S6                          24.349         0.002         0.010
  S7                         391.183         1.029         0.499
  S8                           0.267         0.000         0.001
  S9                           0.307         0.000         0.001
  S10                          3.211         0.003         0.008
  S11                          0.311         0.000         0.001
  S12                          0.175         0.000         0.000
  S13                         90.911         0.008         0.049
  S14                          8.788         0.005         0.019
  S16                         44.047         0.054         0.099
  S17                        304.512         0.075         0.300
  S18                          0.317         0.000         0.001
  S19                         47.280         0.017         0.063
  S20                          7.191         0.005         0.017
  S21                       1527.493         0.320         0.224
  S22                          2.098         0.002         0.006
  S23                         30.637         0.012         0.045
  S24                         23.852         0.007         0.028
  S25                         27.114         0.009         0.034
  S27                          7.907         0.006         0.018
  S28                          0.000         0.000         0.000
  S29                          0.000         0.000         0.000
  S30                          0.000         0.000         0.000
  S31                          0.000         0.000         0.000
  S32                          9.619         0.001         0.010
  S33                         18.593         0.009         0.030
  S34                        804.767         0.213         0.228
  S35                          6.005         0.003         0.011
  S36                         25.812         0.002         0.028
  S37                         10.255         0.005         0.017
  S39                        252.661         0.078         0.312
  S40                         45.193         0.010         0.062
  S41                        189.044         0.059         0.217
  S42                        190.331         0.050         0.203
  S43                         42.087         0.005         0.050
  S44                        415.006         0.114         0.454
  S45                          0.600         0.000         0.001
  S47                         57.976         0.028         0.092
  S48                          3.739         0.003         0.009
  S49                        318.864         0.105         0.383
  S51                         20.787         0.006         0.027
  S52                        105.991         0.036         0.128
  S53                        201.124         0.057         0.210
  S54                        182.112         0.070         0.252
  S55                        319.371         0.100         0.379
  S56                          0.084         0.000         0.000
  S57                         21.565         0.004         0.020
  S58                         69.757         0.024         0.089
  S59                         35.694         0.010         0.042
  S60                         48.096         0.017         0.071
  S61                         16.332         0.002         0.020
  S62                         46.393         0.018         0.064
  S63                         23.928         0.001         0.024
  S64                         26.176         0.011         0.037
  S65                        284.043         0.079         0.355
  --------------------------------------------------------------
  System                    6930.432         2.780         5.725
  
  
  ******************
  Node Depth Summary
  ******************
  
  ---------------------------------------------------------------------------------
                                 Average  Maximum  Maximum  Time of Max    Reported
                                   Depth    Depth      HGL   Occurrence   Max Depth
  Node                 Type       Meters   Meters   Meters  days hr:min      Meters
  ---------------------------------------------------------------------------------
  FID1936              JUNCTION     0.15     0.41  1376.71     0  04:05        0.13
  FID1955              JUNCTION     0.17     0.34  1376.26     0  04:15        0.10
  FID1960              JUNCTION     0.15     0.28  1376.14     0  04:15        0.09
  FID1965              JUNCTION     0.15     0.27  1376.57     0  04:15        0.08
  FID1968              JUNCTION     0.13     0.21  1376.61     0  04:14        0.07
  FID2239              JUNCTION     0.15     0.30  1374.81     0  03:30        0.09
  FID2241              JUNCTION     0.13     0.20  1373.33     0  04:05        0.06
  FID2242              JUNCTION     0.13     0.22  1374.26     0  04:05        0.07
  FID2244              JUNCTION     0.13     0.20  1374.56     0  03:30        0.06
  FID2440              JUNCTION     0.38     0.62  1374.87     0  04:10        0.19
  FID2442              JUNCTION     0.00     0.00  1375.27     0  00:00        0.00
  FID2446              JUNCTION     0.16     0.61  1376.41     0  04:05        0.19
  FID2447              JUNCTION     0.15     0.50  1376.20     0  04:05        0.15
  FID2455              JUNCTION     0.29     0.57  1374.56     0  04:20        0.17
  FID2711              JUNCTION     0.13     0.25  1370.43     0  03:50        0.08
  FID2719              JUNCTION     0.17     0.91  1371.01     0  03:48        0.28
  FID2720              JUNCTION     0.16     0.40  1370.60     0  04:05        0.12
  FID2824              JUNCTION     0.12     0.18  1371.46     0  03:55        0.06
  FID2827              JUNCTION     0.13     0.24  1371.54     0  03:55        0.07
  FID2828              JUNCTION     0.13     0.23  1371.55     0  03:55        0.07
  FID2832              JUNCTION     0.16     0.32  1370.92     0  04:10        0.10
  FID2833              JUNCTION     0.21     0.49  1371.11     0  04:10        0.15
  FID2839              JUNCTION     0.18     0.37  1371.57     0  04:20        0.11
  FID2873              JUNCTION     0.16     0.31  1371.01     0  03:55        0.09
  FID2964              JUNCTION     0.16     0.34  1371.12     0  04:35        0.10
  FID2965              JUNCTION     0.42     0.86  1371.12     0  04:35        0.26
  FID4584              JUNCTION     0.13     0.31  1371.65     0  04:10        0.09
  FID5068              JUNCTION     0.13     0.20  1375.58     0  03:30        0.06
  FID5072              JUNCTION     0.47     0.79  1374.09     0  04:21        0.24
  FID5140              JUNCTION     0.16     0.32  1373.54     0  04:05        0.10
  FID5435              JUNCTION     0.16     0.26  1373.01     0  04:05        0.08
  FID5437              JUNCTION     0.12     0.18  1373.13     0  03:30        0.05
  FID5503              JUNCTION     0.12     0.16  1371.49     0  03:51        0.05
  FID5504              JUNCTION     0.15     0.26  1371.62     0  04:10        0.08
  FID5527              JUNCTION     0.14     0.22  1372.72     0  04:10        0.07
  FID5568              JUNCTION     0.46     0.83  1373.22     0  04:23        0.25
  FID5784              JUNCTION     0.47     0.84  1372.83     0  04:24        0.26
  FID5785              JUNCTION     0.14     0.25  1374.68     0  04:05        0.08
  AFID6926             JUNCTION     0.15     0.26  1370.06     0  04:15        0.08
  AFID7360             JUNCTION     0.47     0.94  1371.07     0  04:35        0.29
  AFID7363             JUNCTION     0.45     0.92  1371.09     0  04:36        0.28
  AFID7376             JUNCTION     0.19     0.42  1371.65     0  04:10        0.13
  AFID7377             JUNCTION     0.39     0.74  1371.42     0  04:32        0.22
  AFID7705             JUNCTION     0.48     0.59  1375.56     0  04:15        0.18
  AFID7706             JUNCTION     0.54     0.64  1375.56     0  04:15        0.20
  AFID7792             JUNCTION     0.18     0.40  1375.20     0  04:05        0.12
  AFID8223             JUNCTION     0.47     0.84  1372.84     0  04:24        0.26
  J1                   JUNCTION     0.70     0.73  1375.72     0  04:15        0.22
  FID4901              JUNCTION     0.43     0.52  1375.59     0  04:15        0.16
  J9                   JUNCTION     0.59     0.62  1375.71     0  04:15        0.19
  J11                  JUNCTION     0.44     0.47  1375.68     0  04:16        0.14
  J12                  JUNCTION     0.43     0.50  1375.62     0  04:15        0.15
  J13                  JUNCTION     0.43     0.52  1375.60     0  04:15        0.16
  FID4902              JUNCTION     0.45     0.54  1375.59     0  04:15        0.16
  J14                  JUNCTION     0.36     0.52  1375.44     0  04:05        0.16
  J15                  JUNCTION     0.34     0.55  1375.21     0  04:06        0.17
  J16                  JUNCTION     0.35     0.55  1375.19     0  04:06        0.17
  FID2449              JUNCTION     0.38     0.62  1374.94     0  04:10        0.19
  J17                  JUNCTION     0.28     0.57  1374.54     0  04:20        0.17
  J19                  JUNCTION     0.41     0.74  1374.29     0  04:22        0.23
  FID5069              JUNCTION     0.49     0.82  1374.08     0  04:21        0.25
  FID5139              JUNCTION     0.47     0.84  1373.19     0  04:22        0.26
  J24                  JUNCTION     0.47     0.84  1373.20     0  04:22        0.26
  FID4984              JUNCTION     0.49     0.86  1372.82     0  04:25        0.26
  FID2669              JUNCTION     0.35     0.72  1369.16     0  04:38        0.22
  FID2712              JUNCTION     0.37     0.77  1369.96     0  04:36        0.23
  FID2718              JUNCTION     0.38     0.78  1370.02     0  04:35        0.24
  FID2838              JUNCTION     0.54     1.01  1370.95     0  04:34        0.31
  FID2825              JUNCTION     0.59     1.09  1370.99     0  04:35        0.33
  FID2823              JUNCTION     0.64     1.14  1371.02     0  04:35        0.35
  FID5505              JUNCTION     0.53     1.02  1371.04     0  04:35        0.31
  FID5436              JUNCTION     0.50     0.85  1372.18     0  04:30        0.26
  FID5438              JUNCTION     0.43     0.79  1372.21     0  04:30        0.24
  J49                  JUNCTION     0.47     0.56  1375.58     0  04:15        0.17
  J50                  JUNCTION     0.51     0.61  1375.57     0  04:15        0.18
  J51                  JUNCTION     0.56     0.67  1375.56     0  04:15        0.20
  J52                  JUNCTION     0.57     0.68  1375.56     0  04:15        0.21
  J53                  JUNCTION     0.36     0.52  1375.44     0  04:05        0.16
  J54                  JUNCTION     0.37     0.50  1375.46     0  04:05        0.15
  J55                  JUNCTION     0.41     0.52  1375.54     0  04:15        0.16
  J56                  JUNCTION     0.39     0.50  1375.52     0  04:09        0.15
  J57                  JUNCTION     0.37     0.48  1375.50     0  04:07        0.15
  J58                  JUNCTION     0.37     0.49  1375.47     0  04:06        0.15
  FID1935              JUNCTION     0.37     0.53  1375.42     0  04:05        0.16
  J59                  JUNCTION     0.37     0.53  1375.40     0  04:05        0.16
  J60                  JUNCTION     0.36     0.52  1375.35     0  04:06        0.16
  J61                  JUNCTION     0.34     0.52  1375.28     0  04:07        0.16
  J62                  JUNCTION     0.33     0.51  1375.27     0  04:07        0.16
  J63                  JUNCTION     0.35     0.54  1375.23     0  04:06        0.17
  J64                  JUNCTION     0.33     0.54  1375.16     0  04:07        0.16
  J65                  JUNCTION     0.30     0.52  1375.10     0  04:08        0.16
  J66                  JUNCTION     0.38     0.61  1374.83     0  04:10        0.19
  J67                  JUNCTION     0.38     0.61  1374.76     0  04:11        0.19
  J68                  JUNCTION     0.36     0.59  1374.66     0  04:12        0.18
  J69                  JUNCTION     0.49     0.79  1374.52     0  04:20        0.24
  J70                  JUNCTION     0.47     0.77  1374.42     0  04:21        0.24
  J71                  JUNCTION     0.45     0.76  1374.36     0  04:21        0.23
  J72                  JUNCTION     0.48     0.80  1374.15     0  04:22        0.24
  J73                  JUNCTION     0.49     0.82  1374.04     0  04:21        0.25
  J74                  JUNCTION     0.50     0.82  1373.80     0  04:24        0.25
  J75                  JUNCTION     0.50     0.82  1373.66     0  04:26        0.25
  J76                  JUNCTION     0.47     0.84  1373.18     0  04:22        0.26
  J77                  JUNCTION     0.47     0.84  1373.05     0  04:23        0.26
  J78                  JUNCTION     0.47     0.84  1372.91     0  04:24        0.26
  J79                  JUNCTION     0.47     0.84  1372.85     0  04:24        0.26
  J80                  JUNCTION     0.40     0.76  1372.25     0  04:30        0.23
  J81                  JUNCTION     0.48     0.83  1371.82     0  04:33        0.25
  J82                  JUNCTION     0.48     0.82  1371.75     0  04:34        0.25
  J83                  JUNCTION     0.40     0.77  1371.57     0  04:34        0.23
  J84                  JUNCTION     0.36     0.70  1371.34     0  04:34        0.21
  J85                  JUNCTION     0.37     0.73  1371.25     0  04:35        0.22
  J86                  JUNCTION     0.39     0.79  1371.16     0  04:35        0.24
  J87                  JUNCTION     0.44     0.90  1371.09     0  04:36        0.28
  J88                  JUNCTION     0.52     1.00  1371.05     0  04:35        0.30
  J89                  JUNCTION     0.56     1.05  1371.04     0  04:35        0.32
  J90                  JUNCTION     0.52     0.99  1370.94     0  04:34        0.30
  J91                  JUNCTION     0.52     0.99  1370.87     0  04:34        0.30
  J92                  JUNCTION     0.52     0.99  1370.82     0  04:35        0.30
  J93                  JUNCTION     0.51     0.98  1370.71     0  04:35        0.30
  J94                  JUNCTION     0.51     0.98  1370.64     0  04:34        0.30
  J95                  JUNCTION     0.51     0.98  1370.62     0  04:34        0.30
  J96                  JUNCTION     0.51     0.97  1370.53     0  04:35        0.30
  J97                  JUNCTION     0.50     0.96  1370.46     0  04:35        0.29
  J98                  JUNCTION     0.49     0.95  1370.40     0  04:36        0.29
  J99                  JUNCTION     0.48     0.93  1370.33     0  04:36        0.28
  J100                 JUNCTION     0.47     0.91  1370.27     0  04:36        0.28
  J101                 JUNCTION     0.45     0.88  1370.21     0  04:36        0.27
  J102                 JUNCTION     0.38     0.78  1370.05     0  04:36        0.24
  J103                 JUNCTION     0.37     0.78  1370.00     0  04:36        0.24
  J104                 JUNCTION     0.37     0.76  1369.92     0  04:36        0.23
  J105                 JUNCTION     0.36     0.74  1369.87     0  04:36        0.23
  J106                 JUNCTION     0.35     0.71  1369.79     0  04:36        0.22
  J107                 JUNCTION     0.35     0.71  1369.65     0  04:37        0.22
  J108                 JUNCTION     0.35     0.71  1369.51     0  04:37        0.22
  J109                 JUNCTION     0.35     0.71  1369.40     0  04:38        0.22
  J110                 JUNCTION     0.35     0.72  1369.30     0  04:38        0.22
  J111                 JUNCTION     0.35     0.72  1369.20     0  04:38        0.22
  J112                 JUNCTION     0.35     0.72  1369.04     0  04:39        0.22
  J113                 JUNCTION     0.35     0.72  1368.94     0  04:39        0.22
  J114                 JUNCTION     0.35     0.72  1368.83     0  04:39        0.22
  J115                 JUNCTION     0.35     0.72  1368.77     0  04:39        0.22
  J116                 JUNCTION     0.35     0.72  1368.70     0  04:40        0.22
  J117                 JUNCTION     0.35     0.71  1368.59     0  04:40        0.22
  J118                 JUNCTION     0.35     0.71  1368.48     0  04:40        0.22
  J119                 JUNCTION     0.35     0.70  1368.41     0  04:40        0.21
  J120                 JUNCTION     0.37     0.69  1368.29     0  04:40        0.21
  FID2451              JUNCTION     0.38     0.61  1374.89     0  04:10        0.19
  J121                 JUNCTION     0.38     0.74  1371.49     0  04:33        0.23
  J122                 JUNCTION     0.38     0.74  1371.46     0  04:33        0.23
  FID3706              JUNCTION     0.51     0.98  1370.72     0  04:35        0.30
  FID2831              JUNCTION     0.51     0.98  1370.61     0  04:34        0.30
  FID2689              OUTFALL      0.25     0.51  1368.01     0  04:40        0.16
  
  
  *******************
  Node Inflow Summary
  *******************
  
  -------------------------------------------------------------------------------------------------
                                  Maximum  Maximum                  Lateral       Total        Flow
                                  Lateral    Total  Time of Max      Inflow      Inflow     Balance
                                   Inflow   Inflow   Occurrence      Volume      Volume       Error
  Node                 Type           CMS      CMS  days hr:min    10^6 ltr    10^6 ltr     Percent
  -------------------------------------------------------------------------------------------------
  FID1936              JUNCTION     0.196    0.196     0  04:05       0.226       0.226       0.072
  FID1955              JUNCTION     0.162    0.162     0  04:15        0.54        0.54       0.031
  FID1960              JUNCTION     0.074    0.074     0  04:15       0.246       0.246       0.068
  FID1965              JUNCTION     0.037    0.037     0  04:15       0.124       0.124       0.140
  FID1968              JUNCTION     0.011    0.011     0  04:15      0.0374      0.0374       0.468
  FID2239              JUNCTION     0.014    0.014     0  03:30      0.0387      0.0387       1.415
  FID2241              JUNCTION     0.000    0.012     0  04:05           0      0.0364       0.475
  FID2242              JUNCTION     0.013    0.013     0  04:05      0.0365      0.0365       0.498
  FID2244              JUNCTION     0.007    0.007     0  03:30      0.0142      0.0142       1.245
  FID2440              JUNCTION     0.000    1.275     0  04:08           0        15.3       0.227
  FID2442              JUNCTION     0.000    0.000     0  00:00           0           0       0.000 ltr
  FID2446              JUNCTION     0.141    0.141     0  04:05        0.16        0.16       1.039
  FID2447              JUNCTION     0.000    0.136     0  04:05           0       0.158      -0.106
  FID2455              JUNCTION     0.097    1.319     0  04:11       0.282        15.4       0.210
  FID2711              JUNCTION     0.000    0.042     0  04:05           0      0.0468       0.471
  FID2719              JUNCTION     0.179    0.179     0  04:05       0.218       0.218       0.227
  FID2720              JUNCTION     0.043    0.043     0  04:05       0.047       0.047       0.473
  FID2824              JUNCTION     0.000    0.004     0  03:55    0.000644     0.00963       1.771
  FID2827              JUNCTION     0.000    0.003     0  03:55     0.00073     0.00908       1.057
  FID2828              JUNCTION     0.003    0.003     0  04:10     0.00861     0.00861       3.066
  FID2832              JUNCTION     0.000    0.188     0  04:10           0       0.559       0.061
  FID2833              JUNCTION     0.189    0.189     0  04:10       0.559       0.559       0.043
  FID2839              JUNCTION     0.383    0.383     0  04:20        1.13        1.13       0.034
  FID2873              JUNCTION     0.025    0.025     0  04:10      0.0734      0.0734       0.819
  FID2964              JUNCTION     0.012    0.012     0  04:10      0.0497      0.0497       0.316
  FID2965              JUNCTION     0.000    1.822     0  04:34           0        16.8       0.271
  FID4584              JUNCTION     0.000    0.002     0  03:32           0    0.000908      17.743
  FID5068              JUNCTION     0.008    0.008     0  03:30      0.0174      0.0174       1.005
  FID5072              JUNCTION     0.099    1.446     0  04:20       0.285        15.5       0.198
  FID5140              JUNCTION     0.259    0.259     0  04:05       0.784       0.784       0.013
  FID5435              JUNCTION     0.213    0.213     0  04:05       0.918       0.918       0.020
  FID5437              JUNCTION     0.002    0.002     0  03:30     0.00475     0.00475       3.807
  FID5503              JUNCTION     0.000    0.000     0  03:27    0.000689    0.000689      33.502
  FID5504              JUNCTION     0.075    0.075     0  04:10       0.222       0.222       0.128
  FID5527              JUNCTION     0.016    0.016     0  04:10      0.0459      0.0459       0.381
  FID5568              JUNCTION     0.004    1.420     0  04:26      0.0068        15.2       0.697
  FID5784              JUNCTION     0.000    1.643     0  04:22           0          16       0.096
  FID5785              JUNCTION     0.000    0.013     0  04:05           0      0.0382       0.313
  AFID6926             JUNCTION     0.075    0.075     0  04:15       0.227       0.227       0.077
  AFID7360             JUNCTION     0.000    1.822     0  04:36    0.000416        16.8       0.197
  AFID7363             JUNCTION     0.000    1.822     0  04:36           0        16.8       0.098
  AFID7376             JUNCTION     0.202    0.202     0  04:10       0.608       0.608      -0.002
  AFID7377             JUNCTION     0.000    1.833     0  04:30           0        16.9       0.106
  AFID7705             JUNCTION     0.000    0.725     0  04:15           0        14.1       0.268
  AFID7706             JUNCTION     0.000    0.652     0  04:16           0        13.9       0.259
  AFID7792             JUNCTION     0.207    0.207     0  04:05       0.615       0.615       0.024
  AFID8223             JUNCTION     0.000    1.634     0  04:22           0          16       0.022
  J1                   JUNCTION     0.667    0.667     0  04:15          21          21       0.151
  FID4901              JUNCTION     0.000    0.486     0  04:19           0        13.8       0.234
  J9                   JUNCTION     0.000    0.667     0  04:15           0          21       0.303
  J11                  JUNCTION     0.000    0.666     0  04:15           0        20.9       0.523
  J12                  JUNCTION     0.007    0.672     0  04:20      0.0229        20.8       0.571
  J13                  JUNCTION    -0.220    0.680     0  04:20       -7.13        20.7      -0.191
  FID4902              JUNCTION     0.000    0.495     0  04:15           0        13.8       0.367
  J14                  JUNCTION     0.377    0.904     0  04:05       0.483        14.3       0.192
  J15                  JUNCTION     0.490    1.257     0  04:05       0.673        14.9       0.157
  J16                  JUNCTION     0.008    1.242     0  04:05      0.0094        14.9       0.158
  FID2449              JUNCTION     0.001    1.140     0  04:08     0.00135        14.7       1.250
  J17                  JUNCTION     0.144    1.401     0  04:20       0.418        15.8       0.100
  J19                  JUNCTION     0.019    1.385     0  04:21      0.0364        15.6       1.219
  FID5069              JUNCTION     0.000    1.447     0  04:20           0        15.5       0.178
  FID5139              JUNCTION     0.000    1.598     0  04:21           0        15.9       0.051
  J24                  JUNCTION     0.018    1.432     0  04:25      0.0413        15.1       0.080
  FID4984              JUNCTION     0.000    1.647     0  04:22           0        16.1       0.794
  FID2669              JUNCTION     0.000    2.159     0  04:38           0        18.4       0.064
  FID2712              JUNCTION     0.000    2.138     0  04:35           0        18.3       0.080
  FID2718              JUNCTION     0.000    2.126     0  04:35           0        18.3       0.056
  FID2838              JUNCTION     0.000    2.027     0  04:33           0        17.8       0.170
  FID2825              JUNCTION     0.000    1.845     0  04:38           0        16.8       0.306
  FID2823              JUNCTION     0.000    1.841     0  04:37           0        16.8       0.470
  FID5505              JUNCTION     0.000    1.838     0  04:36           0        16.9       0.125
  FID5436              JUNCTION     0.000    1.770     0  04:30           0        16.8       0.778
  FID5438              JUNCTION     0.000    1.638     0  04:31           0        15.9       0.144
  J49                  JUNCTION     0.000    0.498     0  04:19           0        13.7       0.587
  J50                  JUNCTION     0.000    0.505     0  04:19    0.000276        13.6       1.029
  J51                  JUNCTION     0.000    0.515     0  04:18           0        13.5       0.830
  J52                  JUNCTION     0.000    0.529     0  04:33           0        13.4       0.246
  J53                  JUNCTION     0.000    0.742     0  04:15           0        13.8       0.209
  J54                  JUNCTION     0.000    0.737     0  04:15           0        13.9       0.310
  J55                  JUNCTION     0.000    0.726     0  04:15           0        14.1       0.297
  J56                  JUNCTION     0.000    0.726     0  04:15           0          14       0.318
  J57                  JUNCTION     0.000    0.728     0  04:15           0          14       0.397
  J58                  JUNCTION     0.002    0.732     0  04:15     0.00673        13.9       0.425
  FID1935              JUNCTION     0.000    1.082     0  04:05           0        14.5       0.246
  J59                  JUNCTION     0.000    1.059     0  04:05           0        14.4       0.342
  J60                  JUNCTION     0.008    1.023     0  04:05     0.00946        14.4       0.535
  J61                  JUNCTION     0.000    0.954     0  04:06           0        14.3       0.359
  J62                  JUNCTION     0.000    0.943     0  04:07           0        14.3       0.161
  J63                  JUNCTION     0.000    0.946     0  04:07           0        14.3       0.164
  J64                  JUNCTION     0.000    1.224     0  04:05           0        14.9       0.164
  J65                  JUNCTION     0.026    1.224     0  04:05      0.0301        14.9       0.950
  J66                  JUNCTION     0.000    1.271     0  04:09           0        15.3       0.287
  J67                  JUNCTION     0.000    1.266     0  04:10           0        15.2       0.428
  J68                  JUNCTION     0.011    1.264     0  04:10       0.023        15.2       0.464
  J69                  JUNCTION     0.000    1.398     0  04:11           0        15.7       0.449
  J70                  JUNCTION     0.006    1.394     0  04:20      0.0116        15.7       0.576
  J71                  JUNCTION     0.000    1.386     0  04:21           0        15.6       0.415
  J72                  JUNCTION     0.011    1.381     0  04:22      0.0313        15.4       1.358
  J73                  JUNCTION     0.000    1.445     0  04:20           0        15.5       0.393
  J74                  JUNCTION     0.000    1.437     0  04:20           0        15.4       0.579
  J75                  JUNCTION     0.006    1.428     0  04:22       0.012        15.3       0.898
  J76                  JUNCTION     0.000    1.597     0  04:22           0        15.9       0.212
  J77                  JUNCTION     0.089    1.654     0  04:20       0.265        16.1       0.390
  J78                  JUNCTION     0.000    1.643     0  04:21           0        16.1       0.293
  J79                  JUNCTION     0.000    1.635     0  04:22           0          16       0.107
  J80                  JUNCTION     0.014    1.641     0  04:25      0.0306          16       0.652
  J81                  JUNCTION     0.002    1.773     0  04:30     0.00537        16.7       1.183
  J82                  JUNCTION     0.000    1.761     0  04:32           0        16.5       0.467
  J83                  JUNCTION     0.000    1.760     0  04:34           0        16.4       0.347
  J84                  JUNCTION     0.000    1.832     0  04:30           0        16.9       0.184
  J85                  JUNCTION     0.000    1.828     0  04:31           0        16.9       0.343
  J86                  JUNCTION     0.000    1.822     0  04:33           0        16.8       0.354
  J87                  JUNCTION     0.003    1.822     0  04:36     0.00824        16.8       0.151
  J88                  JUNCTION     0.000    1.823     0  04:37           0        16.7       0.229
  J89                  JUNCTION     0.000    1.839     0  04:37           0        16.9       0.345
  J90                  JUNCTION     0.000    2.026     0  04:33           0        17.8       0.120
  J91                  JUNCTION     0.000    2.025     0  04:33           0        17.8       0.167
  J92                  JUNCTION     0.000    2.025     0  04:34    3.46e-06        17.8       0.207
  J93                  JUNCTION     0.000    2.030     0  04:35           0        17.8       0.111
  J94                  JUNCTION     0.000    2.031     0  04:35    6.11e-06        17.7       0.127
  J95                  JUNCTION     0.000    2.031     0  04:35           0        17.7       0.048
  J96                  JUNCTION     0.000    2.079     0  04:33           0        18.2       0.178
  J97                  JUNCTION     0.000    2.078     0  04:34           0        18.2       0.152
  J98                  JUNCTION     0.000    2.076     0  04:34           0        18.2       0.134
  J99                  JUNCTION     0.000    2.075     0  04:35           0        18.2       0.114
  J100                 JUNCTION     0.000    2.074     0  04:35           0        18.1       0.096
  J101                 JUNCTION     0.000    2.073     0  04:36           0        18.1       0.111
  J102                 JUNCTION     0.000    2.074     0  04:37           0        18.1       0.086
  J103                 JUNCTION     0.000    2.125     0  04:35           0        18.3       0.064
  J104                 JUNCTION     0.000    2.136     0  04:35           0        18.3       0.085
  J105                 JUNCTION     0.000    2.134     0  04:35           0        18.3       0.106
  J106                 JUNCTION     0.000    2.133     0  04:36           0        18.3       0.118
  J107                 JUNCTION     0.000    2.131     0  04:36           0        18.3       0.121
  J108                 JUNCTION     0.000    2.129     0  04:36    2.14e-05        18.2       0.109
  J109                 JUNCTION     0.000    2.128     0  04:37           0        18.2       0.092
  J110                 JUNCTION     0.000    2.127     0  04:37           0        18.2       0.089
  J111                 JUNCTION     0.000    2.126     0  04:38    0.000186        18.2       0.066
  J112                 JUNCTION     0.000    2.159     0  04:38           0        18.4       0.092
  J113                 JUNCTION     0.000    2.158     0  04:38           0        18.4       0.090
  J114                 JUNCTION     0.000    2.157     0  04:39           0        18.4       0.077
  J115                 JUNCTION     0.000    2.156     0  04:39           0        18.3       0.056
  J116                 JUNCTION     0.000    2.156     0  04:39    6.18e-06        18.3       0.074
  J117                 JUNCTION     0.000    2.156     0  04:39           0        18.3       0.092
  J118                 JUNCTION     0.000    2.155     0  04:40           0        18.3       0.079
  J119                 JUNCTION     0.000    2.155     0  04:40           0        18.3       0.077
  J120                 JUNCTION     0.000    2.154     0  04:40           0        18.3       0.095
  FID2451              JUNCTION     0.000    1.128     0  04:09           0        14.7       0.227
  J121                 JUNCTION     0.006    1.761     0  04:34      0.0162        16.4       0.105
  J122                 JUNCTION     0.000    1.761     0  04:35    0.000733        16.4       0.093
  FID3706              JUNCTION     0.000    2.030     0  04:34           0        17.8       0.165
  FID2831              JUNCTION     0.000    2.080     0  04:32           0        18.3       0.105
  FID2689              OUTFALL      0.000    2.154     0  04:40           0        18.3       0.000
  
  
  **********************
  Node Surcharge Summary
  **********************
  
  Surcharging occurs when water rises above the top of the highest conduit.
  ---------------------------------------------------------------------
                                               Max. Height   Min. Depth
                                   Hours       Above Crown    Below Rim
  Node                 Type      Surcharged         Meters       Meters
  ---------------------------------------------------------------------
  FID2446              JUNCTION        0.11          0.081        0.000
  FID2719              JUNCTION        0.07          0.381        0.000
  
  
  *********************
  Node Flooding Summary
  *********************
  
  Flooding refers to all water that overflows a node, whether it ponds or not.
  --------------------------------------------------------------------------
                                                             Total   Maximum
                                 Maximum   Time of Max       Flood    Ponded
                        Hours       Rate    Occurrence      Volume     Depth
  Node                 Flooded       CMS   days hr:min    10^6 ltr    Meters
  --------------------------------------------------------------------------
  FID2446                 0.11     0.008      0  04:03       0.002     0.081
  
  
  ***********************
  Outfall Loading Summary
  ***********************
  
  -----------------------------------------------------------------------------------------------------
                         Flow       Avg       Max       Total         Total         Total         Total
                         Freq      Flow      Flow      Volume           TSS            TP           TDP
  Outfall Node           Pcnt       CMS       CMS    10^6 ltr            kg            kg            kg
  -----------------------------------------------------------------------------------------------------
  FID2689               76.91     0.974     2.154      18.257      6865.683         3.106         6.080
  -----------------------------------------------------------------------------------------------------
  System                76.91     0.974     2.154      18.257      6865.683         3.106         6.080
  
  
  ********************
  Link Flow Summary
  ********************
  
  -----------------------------------------------------------------------------
                                 Maximum  Time of Max   Maximum    Max/    Max/
                                  |Flow|   Occurrence   |Veloc|    Full    Full
  Link                 Type          CMS  days hr:min     m/sec    Flow   Depth
  -----------------------------------------------------------------------------
  FID1123              CONDUIT     0.025     0  04:10      0.78    0.46    0.70
  FID1139              CONDUIT     0.179     0  04:05      1.65    1.42    0.91
  FID1148              CONDUIT     0.188     0  04:10      1.03    0.51    0.32
  FID1149              CONDUIT     0.188     0  04:10      2.17    0.07    0.35
  FID3364              CONDUIT     0.202     0  04:10      0.98    0.18    0.44
  FID3671              CONDUIT     0.011     0  04:15      1.06    0.09    0.20
  FID3672              CONDUIT     0.037     0  04:15      1.48    0.30    0.38
  FID3762              CONDUIT     0.074     0  04:15      1.85    0.25    0.48
  FID3765              CONDUIT     0.162     0  04:15      2.68    0.50    0.59
  FID4112              CONDUIT     0.196     0  04:05      1.65    0.38    0.43
  FID4186              CONDUIT     0.012     0  04:05      0.91    0.07    0.18
  FID4187              CONDUIT     0.012     0  04:05      1.44    0.04    0.13
  FID4201              CONDUIT     0.136     0  04:05      1.21    1.54    0.96
  FID4202              CONDUIT     0.135     0  04:05      1.36    1.09    0.81
  FID4203              CONDUIT     0.000     0  00:00      0.00    0.00    0.33
  FID4299              CONDUIT     0.008     0  03:30      0.92    0.04    0.13
  FID4372              CONDUIT     0.259     0  04:05      1.03    0.05    0.39
  FID4498              CONDUIT     0.012     0  04:10      0.41    0.03    0.70
  FID4806              CONDUIT     0.213     0  04:05      5.01    0.03    0.12
  FID4807              CONDUIT     0.002     0  03:30      0.70    0.01    0.09
  FID4882              CONDUIT     0.000     0  03:51      0.02    0.00    0.52
  FID4884              CONDUIT     0.075     0  04:10      1.81    0.03    0.18
  FID4914              CONDUIT     0.016     0  04:10      0.23    0.06    0.58
  FID4915              CONDUIT     0.003     0  04:10      0.23    0.10    0.22
  FID4916              CONDUIT     0.003     0  03:55      0.28    0.09    0.16
  FID4917              CONDUIT     0.004     0  03:55      0.82    0.01    0.54
  FID5307              CONDUIT     0.013     0  04:05      0.44    0.26    0.32
  FID5308              CONDUIT     0.007     0  03:30      1.16    0.04    0.14
  FID5312              CONDUIT     0.013     0  04:05      0.60    0.09    0.19
  FID5865              CONDUIT     0.383     0  04:20      3.26    0.17    0.37
  C9                   CHANNEL     0.667     0  04:15      0.66    0.07    0.48
  C12                  CHANNEL     0.668     0  04:20      0.46    0.29    0.57
  C13                  CHANNEL     0.680     0  04:20      0.62    0.30    0.59
  C14                  CHANNEL     0.465     0  04:34      0.69    0.20    0.60
  C52                  CONDUIT     0.207     0  04:05      1.47    0.35    0.57
  C130                 CONDUIT     0.042     0  04:05      0.63    0.87    0.43
  C131                 CONDUIT     0.042     0  04:05      1.65    0.10    0.47
  C139                 CONDUIT     0.002     0  03:32      0.09    0.02    0.55
  C191                 CHANNEL     0.498     0  04:19      0.48    0.22    0.64
  C193                 CHANNEL     0.515     0  04:18      0.38    0.23    0.74
  C194                 CHANNEL     0.529     0  04:33      0.30    0.23    0.79
  C195                 CHANNEL     0.532     0  04:33      0.35    0.10    0.63
  C196                 CONDUIT     0.488     0  04:19      0.45    0.35    0.67
  C197                 CONDUIT     0.654     0  04:15      0.24    0.31    0.88
  C198                 CHANNEL     0.726     0  04:15      0.31    0.14    0.52
  C199                 CHANNEL     0.726     0  04:15      0.32    3.17    0.61
  C200                 CHANNEL     0.728     0  04:15      0.34    2.87    0.58
  C201                 CHANNEL     0.731     0  04:15      0.35    0.22    0.49
  C202                 CHANNEL     0.737     0  04:15      0.35    0.22    0.50
  C203                 CHANNEL     0.742     0  04:15      0.35    0.22    0.51
  C204                 CHANNEL     0.747     0  04:15      0.51    0.22    0.52
  C205                 CONDUIT     0.887     0  04:05      0.35    0.61    0.64
  C206                 CHANNEL     1.059     0  04:05      0.43    0.31    0.53
  C207                 CHANNEL     1.018     0  04:05      0.42    0.30    0.52
  C208                 CHANNEL     0.954     0  04:06      0.40    0.28    0.52
  C209                 CHANNEL     0.943     0  04:07      0.40    0.28    0.51
  C210                 CHANNEL     0.946     0  04:07      0.48    0.29    0.61
  C211                 CHANNEL     0.953     0  04:08      0.47    0.35    0.56
  C212                 CONDUIT     1.234     0  04:05      0.47    0.71    0.67
  C213                 CHANNEL     1.224     0  04:05      0.60    0.44    0.56
  C214                 CHANNEL     1.206     0  04:05      0.63    0.44    0.54
  C215                 CONDUIT     1.140     0  04:08      0.41    0.66    0.69
  C216                 CONDUIT     1.117     0  04:09      0.51    0.83    0.58
  C217                 CONDUIT     1.126     0  04:09      0.43    0.45    0.45
  C218                 CHANNEL     1.271     0  04:09      0.54    0.46    0.63
  C219                 CHANNEL     1.266     0  04:10      0.54    0.46    0.62
  C220                 CHANNEL     1.260     0  04:10      0.55    0.46    0.61
  C221                 CHANNEL     1.259     0  04:11      0.57    0.46    0.59
  C222                 CONDUIT     1.315     0  04:11      0.55    0.88    0.69
  C223                 CHANNEL     1.398     0  04:11      1.38    0.17    0.60
  C224                 CHANNEL     1.391     0  04:12      0.52    0.90    0.91
  C225                 CHANNEL     1.386     0  04:21      0.53    0.90    0.89
  C226                 CHANNEL     1.381     0  04:21      0.54    0.90    0.88
  C227                 CONDUIT     1.377     0  04:23      0.42    1.11    0.94
  C228                 CHANNEL     1.386     0  04:23      0.68    0.57    0.74
  C229                 CONDUIT     1.441     0  04:20      0.34    0.25    0.54
  C230                 CHANNEL     1.445     0  04:20      0.67    0.59    0.76
  C231                 CHANNEL     1.437     0  04:20      0.67    0.59    0.76
  C232                 CHANNEL     1.427     0  04:22      0.67    0.58    0.76
  C233                 CHANNEL     1.420     0  04:26      0.66    0.58    0.76
  C234                 CONDUIT     1.429     0  04:25      0.50    0.59    0.61
  C235                 CHANNEL     1.432     0  04:25      0.66    0.58    0.78
  C236                 CHANNEL     1.597     0  04:22      0.69    0.76    0.87
  C237                 CHANNEL     1.596     0  04:22      0.68    0.76    0.87
  C238                 CHANNEL     1.643     0  04:21      0.71    0.79    0.87
  C239                 CHANNEL     1.635     0  04:22      0.71    0.78    0.87
  C240                 CHANNEL     1.633     0  04:23      0.71    0.76    0.87
  C241                 CHANNEL     1.634     0  04:22      0.76    0.78    0.87
  C242                 CONDUIT     1.641     0  04:23      0.52    0.57    0.70
  C243                 CHANNEL     1.639     0  04:25      0.74    0.78    0.84
  C244                 CHANNEL     1.637     0  04:31      0.94    0.27    0.50
  C245                 CONDUIT     1.638     0  04:31      0.63    0.45    0.64
  C246                 CHANNEL     1.766     0  04:30      0.60    0.57    0.73
  C247                 CHANNEL     1.761     0  04:32      0.62    0.57    0.72
  C248                 CHANNEL     1.760     0  04:34      0.65    0.56    0.69
  C249                 CHANNEL     1.760     0  04:34      2.75    0.71    0.71
  C250                 CONDUIT     1.761     0  04:35      0.75    0.65    0.58
  C251                 CONDUIT     1.761     0  04:35      0.75    0.65    0.58
  C252                 CHANNEL     1.832     0  04:30      2.05    0.74    0.68
  C253                 CHANNEL     1.828     0  04:31      0.84    0.42    0.67
  C254                 CHANNEL     1.822     0  04:33      1.57    0.41    0.72
  C255                 CHANNEL     1.818     0  04:34      1.89    0.41    0.78
  C256                 CHANNEL     1.821     0  04:36      1.80    0.41    0.83
  C257                 CHANNEL     1.822     0  04:36      1.80    0.41    0.86
  C258                 CONDUIT     1.822     0  04:37      0.62    0.67    0.73
  C259                 CHANNEL     1.823     0  04:37      0.92    0.41    0.92
  C260                 CHANNEL     1.825     0  04:37      0.61    0.41    0.95
  C261                 CHANNEL     1.839     0  04:37      0.70    0.42    0.98
  C262                 CHANNEL     1.841     0  04:37      0.81    0.42    1.00
  C263                 CHANNEL     1.845     0  04:38      0.52    0.43    0.71
  C264                 CONDUIT     1.847     0  04:39      0.58    0.96    0.77
  C265                 CHANNEL     2.026     0  04:33      0.62    0.47    0.63
  C266                 CHANNEL     2.025     0  04:33      0.65    0.40    0.69
  C267                 CHANNEL     2.025     0  04:34      0.65    0.40    0.69
  C268                 CHANNEL     2.024     0  04:35      0.65    0.40    0.69
  C269                 CHANNEL     2.030     0  04:35      0.89    0.40    0.69
  C270                 CHANNEL     2.031     0  04:35      0.65    0.40    0.69
  C271                 CHANNEL     2.031     0  04:35      0.66    0.40    0.69
  C272                 CHANNEL     2.031     0  04:36      0.68    0.40    0.69
  C273                 CHANNEL     2.079     0  04:33      0.68    0.41    0.68
  C274                 CHANNEL     2.078     0  04:34      0.69    0.41    0.68
  C275                 CHANNEL     2.076     0  04:34      0.70    0.41    0.67
  C276                 CHANNEL     2.075     0  04:35      0.72    0.41    0.66
  C277                 CHANNEL     2.074     0  04:35      0.75    0.41    0.64
  C278                 CHANNEL     2.073     0  04:36      0.79    0.41    0.63
  C279                 CHANNEL     2.074     0  04:37      0.91    0.41    0.58
  C280                 CHANNEL     2.076     0  04:37      0.76    0.71    0.80
  C281                 CHANNEL     2.125     0  04:35      0.77    0.72    0.79
  C282                 CHANNEL     2.123     0  04:35      0.78    0.72    0.79
  C283                 CHANNEL     2.136     0  04:35      0.80    0.73    0.78
  C284                 CHANNEL     2.134     0  04:35      0.81    0.73    0.76
  C285                 CHANNEL     2.133     0  04:36      0.85    0.73    0.74
  C286                 CHANNEL     2.131     0  04:36      0.95    0.52    0.73
  C287                 CHANNEL     2.129     0  04:36      0.95    0.52    0.73
  C288                 CHANNEL     2.128     0  04:37      0.95    0.52    0.73
  C289                 CHANNEL     2.127     0  04:37      0.94    0.52    0.73
  C290                 CHANNEL     2.126     0  04:38      0.94    0.52    0.73
  C291                 CHANNEL     2.125     0  04:38      0.94    0.52    0.73
  C292                 CHANNEL     2.159     0  04:38      0.95    0.52    0.73
  C293                 CHANNEL     2.158     0  04:38      0.95    0.52    0.73
  C294                 CHANNEL     2.157     0  04:39      0.95    0.52    0.73
  C295                 CHANNEL     2.156     0  04:39      0.95    0.52    0.73
  C296                 CHANNEL     2.156     0  04:39      0.95    0.52    0.73
  C297                 CHANNEL     2.156     0  04:39      0.96    0.52    0.73
  C298                 CHANNEL     2.155     0  04:40      0.96    0.52    0.73
  C299                 CHANNEL     2.155     0  04:40      0.97    0.52    0.72
  C300                 CHANNEL     2.154     0  04:40      0.99    0.52    0.71
  C301                 CHANNEL     2.154     0  04:40      1.51    0.38    0.46
  C302                 CHANNEL     0.666     0  04:15      0.57    0.10    0.43
  C303                 CHANNEL     0.505     0  04:19      0.43    0.22    0.68
  C353                 CONDUIT     0.075     0  04:15      1.75    0.03    0.12
  
  
  ***************************
  Flow Classification Summary
  ***************************
  
  -------------------------------------------------------------------------------------
                      Adjusted    ---------- Fraction of Time in Flow Class ---------- 
                       /Actual         Up    Down  Sub   Sup   Up    Down  Norm  Inlet 
  Conduit               Length    Dry  Dry   Dry   Crit  Crit  Crit  Crit  Ltd   Ctrl  
  -------------------------------------------------------------------------------------
  FID1123                 1.00   0.19  0.00  0.00  0.30  0.00  0.00  0.51  0.20  0.00
  FID1139                 1.00   0.16  0.00  0.00  0.19  0.00  0.00  0.65  0.13  0.00
  FID1148                 1.00   0.14  0.00  0.00  0.52  0.00  0.00  0.33  0.00  0.00
  FID1149                 1.00   0.15  0.00  0.00  0.45  0.05  0.00  0.34  0.37  0.00
  FID3364                 1.00   0.14  0.01  0.00  0.86  0.00  0.00  0.00  0.70  0.00
  FID3671                 1.00   0.22  0.00  0.00  0.00  0.00  0.00  0.78  0.00  0.00
  FID3672                 1.00   0.19  0.00  0.00  0.00  0.00  0.00  0.81  0.00  0.00
  FID3762                 1.00   0.01  0.16  0.00  0.71  0.12  0.00  0.00  0.67  0.00
  FID3765                 1.00   0.01  0.16  0.00  0.66  0.17  0.00  0.00  0.67  0.00
  FID4112                 1.00   0.16  0.00  0.00  0.00  0.00  0.00  0.84  0.00  0.00
  FID4186                 1.00   0.22  0.00  0.00  0.40  0.11  0.00  0.27  0.00  0.00
  FID4187                 1.00   0.24  0.00  0.00  0.00  0.00  0.00  0.76  0.00  0.00
  FID4201                 1.00   0.17  0.00  0.00  0.77  0.00  0.00  0.06  0.44  0.00
  FID4202                 1.00   0.19  0.00  0.00  0.00  0.00  0.00  0.81  0.00  0.00
  FID4203                 1.00   0.17  0.83  0.00  0.00  0.00  0.00  0.00  0.00  0.00
  FID4299                 1.00   0.23  0.00  0.00  0.00  0.00  0.00  0.77  0.00  0.00
  FID4372                 1.00   0.07  0.12  0.00  0.81  0.00  0.00  0.00  0.66  0.00
  FID4498                 1.00   0.15  0.00  0.00  0.85  0.00  0.00  0.01  0.58  0.00
  FID4806                 1.00   0.17  0.00  0.00  0.00  0.00  0.00  0.83  0.00  0.00
  FID4807                 1.00   0.24  0.00  0.00  0.00  0.00  0.00  0.76  0.00  0.00
  FID4882                 1.00   0.24  0.29  0.00  0.30  0.00  0.00  0.17  0.59  0.00
  FID4884                 1.00   0.15  0.00  0.00  0.19  0.03  0.00  0.62  0.15  0.00
  FID4914                 1.00   0.11  0.08  0.00  0.80  0.00  0.00  0.00  0.65  0.00
  FID4915                 1.00   0.24  0.00  0.00  0.75  0.00  0.00  0.01  0.49  0.00
  FID4916                 1.00   0.24  0.00  0.00  0.58  0.00  0.00  0.18  0.10  0.00
  FID4917                 1.00   0.25  0.00  0.00  0.42  0.00  0.00  0.33  0.31  0.00
  FID5307                 1.00   0.22  0.00  0.00  0.75  0.00  0.00  0.03  0.49  0.00
  FID5308                 1.00   0.23  0.00  0.00  0.00  0.00  0.00  0.77  0.00  0.00
  FID5312                 1.00   0.24  0.00  0.00  0.00  0.00  0.00  0.76  0.00  0.00
  FID5865                 1.00   0.14  0.00  0.00  0.18  0.12  0.00  0.55  0.21  0.00
  C9                      1.00   0.00  0.00  0.00  1.00  0.00  0.00  0.00  0.00  0.00
  C12                     1.00   0.00  0.00  0.00  1.00  0.00  0.00  0.00  0.00  0.00
  C13                     1.00   0.00  0.00  0.00  1.00  0.00  0.00  0.00  0.00  0.00
  C14                     1.00   0.00  0.00  0.00  1.00  0.00  0.00  0.00  0.00  0.00
  C52                     1.00   0.04  0.14  0.00  0.82  0.01  0.00  0.00  0.68  0.00
  C130                    1.00   0.22  0.00  0.00  0.53  0.00  0.00  0.25  0.00  0.00
  C131                    1.00   0.25  0.00  0.00  0.37  0.01  0.00  0.37  0.28  0.00
  C139                    1.00   0.14  0.46  0.00  0.39  0.00  0.01  0.00  0.49  0.00
  C191                    1.00   0.00  0.00  0.00  1.00  0.00  0.00  0.00  0.00  0.00
  C193                    1.00   0.00  0.00  0.00  1.00  0.00  0.00  0.00  0.00  0.00
  C194                    1.00   0.00  0.00  0.00  1.00  0.00  0.00  0.00  0.00  0.00
  C195                    1.00   0.01  0.00  0.00  0.99  0.00  0.00  0.00  0.00  0.00
  C196                    1.00   0.00  0.00  0.00  1.00  0.00  0.00  0.00  0.00  0.00
  C197                    1.00   0.01  0.00  0.00  0.99  0.00  0.00  0.00  0.00  0.00
  C198                    1.00   0.01  0.00  0.00  0.99  0.00  0.00  0.00  0.00  0.00
  C199                    1.00   0.01  0.00  0.00  0.99  0.00  0.00  0.00  0.00  0.00
  C200                    1.00   0.01  0.00  0.00  0.99  0.00  0.00  0.00  0.00  0.00
  C201                    1.00   0.01  0.00  0.00  0.99  0.00  0.00  0.00  0.00  0.00
  C202                    1.00   0.01  0.00  0.00  0.99  0.00  0.00  0.00  0.00  0.00
  C203                    1.00   0.01  0.00  0.00  0.99  0.00  0.00  0.00  0.00  0.00
  C204                    1.00   0.01  0.00  0.00  0.99  0.00  0.00  0.00  0.00  0.00
  C205                    1.00   0.02  0.00  0.00  0.98  0.00  0.00  0.00  0.00  0.00
  C206                    1.00   0.02  0.00  0.00  0.98  0.00  0.00  0.00  0.00  0.00
  C207                    1.00   0.02  0.00  0.00  0.98  0.00  0.00  0.00  0.00  0.00
  C208                    1.00   0.02  0.00  0.00  0.98  0.00  0.00  0.00  0.00  0.00
  C209                    1.00   0.02  0.00  0.00  0.98  0.00  0.00  0.00  0.00  0.00
  C210                    1.00   0.02  0.00  0.00  0.98  0.00  0.00  0.00  0.00  0.00
  C211                    1.00   0.02  0.00  0.00  0.98  0.00  0.00  0.00  0.00  0.00
  C212                    1.00   0.02  0.00  0.00  0.98  0.00  0.00  0.00  0.00  0.00
  C213                    1.00   0.02  0.00  0.00  0.98  0.00  0.00  0.00  0.00  0.00
  C214                    1.00   0.02  0.00  0.00  0.98  0.00  0.00  0.00  0.00  0.00
  C215                    1.00   0.03  0.00  0.00  0.97  0.00  0.00  0.00  0.71  0.00
  C216                    1.00   0.03  0.00  0.00  0.97  0.00  0.00  0.00  0.00  0.00
  C217                    1.00   0.03  0.00  0.00  0.97  0.00  0.00  0.00  0.00  0.00
  C218                    1.00   0.03  0.00  0.00  0.97  0.00  0.00  0.00  0.00  0.00
  C219                    1.00   0.03  0.00  0.00  0.97  0.00  0.00  0.00  0.00  0.00
  C220                    1.00   0.04  0.00  0.00  0.96  0.00  0.00  0.00  0.00  0.00
  C221                    1.00   0.04  0.00  0.00  0.96  0.00  0.00  0.00  0.00  0.00
  C222                    1.00   0.04  0.00  0.00  0.96  0.00  0.00  0.00  0.00  0.00
  C223                    1.00   0.04  0.00  0.00  0.96  0.00  0.00  0.00  0.01  0.00
  C224                    1.00   0.04  0.00  0.00  0.96  0.00  0.00  0.00  0.00  0.00
  C225                    1.00   0.04  0.00  0.00  0.96  0.00  0.00  0.00  0.00  0.00
  C226                    1.00   0.04  0.00  0.00  0.96  0.00  0.00  0.00  0.00  0.00
  C227                    1.00   0.05  0.00  0.00  0.95  0.00  0.00  0.00  0.00  0.00
  C228                    1.00   0.05  0.00  0.00  0.95  0.00  0.00  0.00  0.00  0.00
  C229                    1.00   0.05  0.00  0.00  0.95  0.00  0.00  0.00  0.00  0.00
  C230                    1.00   0.05  0.00  0.00  0.95  0.00  0.00  0.00  0.00  0.00
  C231                    1.00   0.06  0.00  0.00  0.94  0.00  0.00  0.00  0.01  0.00
  C232                    1.00   0.06  0.00  0.00  0.94  0.00  0.00  0.00  0.00  0.00
  C233                    1.00   0.06  0.00  0.00  0.94  0.00  0.00  0.00  0.03  0.00
  C234                    1.00   0.06  0.00  0.00  0.94  0.00  0.00  0.00  0.00  0.00
  C235                    1.00   0.06  0.00  0.00  0.94  0.00  0.00  0.00  0.00  0.00
  C236                    1.00   0.06  0.00  0.00  0.94  0.00  0.00  0.00  0.00  0.00
  C237                    1.00   0.07  0.00  0.00  0.93  0.00  0.00  0.00  0.00  0.00
  C238                    1.00   0.07  0.00  0.00  0.93  0.00  0.00  0.00  0.00  0.00
  C239                    1.00   0.07  0.00  0.00  0.93  0.00  0.00  0.00  0.00  0.00
  C240                    1.00   0.07  0.00  0.00  0.93  0.00  0.00  0.00  0.00  0.00
  C241                    1.00   0.07  0.00  0.00  0.93  0.00  0.00  0.00  0.00  0.00
  C242                    1.00   0.07  0.00  0.00  0.93  0.00  0.00  0.00  0.00  0.00
  C243                    1.00   0.07  0.00  0.00  0.93  0.00  0.00  0.00  0.00  0.00
  C244                    1.00   0.07  0.00  0.00  0.92  0.01  0.00  0.00  0.00  0.00
  C245                    1.00   0.08  0.00  0.00  0.92  0.00  0.00  0.00  0.00  0.00
  C246                    1.00   0.08  0.00  0.00  0.92  0.00  0.00  0.00  0.51  0.00
  C247                    1.00   0.09  0.00  0.00  0.91  0.00  0.00  0.00  0.00  0.00
  C248                    1.00   0.10  0.00  0.00  0.90  0.00  0.00  0.00  0.00  0.00
  C249                    1.00   0.11  0.00  0.00  0.89  0.00  0.00  0.00  0.00  0.00
  C250                    1.00   0.12  0.00  0.00  0.88  0.00  0.00  0.00  0.00  0.00
  C251                    1.00   0.13  0.00  0.00  0.87  0.00  0.00  0.00  0.00  0.00
  C252                    1.00   0.13  0.00  0.00  0.87  0.00  0.00  0.00  0.00  0.00
  C253                    1.00   0.13  0.00  0.00  0.87  0.00  0.00  0.00  0.00  0.00
  C254                    1.00   0.14  0.00  0.00  0.86  0.00  0.00  0.00  0.04  0.00
  C255                    1.00   0.14  0.00  0.00  0.86  0.00  0.00  0.00  0.00  0.00
  C256                    1.00   0.13  0.01  0.00  0.86  0.00  0.00  0.00  0.00  0.00
  C257                    1.00   0.13  0.00  0.00  0.87  0.00  0.00  0.00  0.00  0.00
  C258                    1.00   0.13  0.02  0.00  0.85  0.00  0.00  0.00  0.00  0.00
  C259                    1.00   0.13  0.00  0.00  0.87  0.00  0.00  0.00  0.00  0.00
  C260                    1.00   0.15  0.00  0.00  0.84  0.00  0.00  0.00  0.00  0.00
  C261                    1.00   0.15  0.00  0.00  0.85  0.00  0.00  0.00  0.00  0.00
  C262                    1.00   0.16  0.00  0.00  0.84  0.00  0.00  0.00  0.00  0.00
  C263                    1.00   0.15  0.00  0.00  0.85  0.00  0.00  0.00  0.00  0.00
  C264                    1.00   0.14  0.00  0.00  0.86  0.00  0.00  0.00  0.00  0.00
  C265                    1.00   0.14  0.03  0.00  0.83  0.00  0.00  0.00  0.00  0.00
  C266                    1.00   0.17  0.00  0.00  0.83  0.00  0.00  0.00  0.00  0.00
  C267                    1.00   0.17  0.00  0.00  0.83  0.00  0.00  0.00  0.00  0.00
  C268                    1.00   0.18  0.00  0.00  0.82  0.00  0.00  0.00  0.00  0.00
  C269                    1.00   0.18  0.00  0.00  0.82  0.00  0.00  0.00  0.00  0.00
  C270                    1.00   0.18  0.00  0.00  0.82  0.00  0.00  0.00  0.00  0.00
  C271                    1.00   0.17  0.01  0.00  0.82  0.00  0.00  0.00  0.00  0.00
  C272                    1.00   0.15  0.01  0.00  0.83  0.00  0.00  0.00  0.00  0.00
  C273                    1.00   0.15  0.00  0.00  0.85  0.00  0.00  0.00  0.00  0.00
  C274                    1.00   0.16  0.00  0.00  0.84  0.00  0.00  0.00  0.00  0.00
  C275                    1.00   0.19  0.00  0.00  0.81  0.00  0.00  0.00  0.00  0.00
  C276                    1.00   0.19  0.00  0.00  0.81  0.00  0.00  0.00  0.00  0.00
  C277                    1.00   0.19  0.00  0.00  0.81  0.00  0.00  0.00  0.00  0.00
  C278                    1.00   0.20  0.00  0.00  0.80  0.00  0.00  0.00  0.00  0.00
  C279                    1.00   0.20  0.00  0.00  0.80  0.00  0.00  0.00  0.00  0.00
  C280                    1.00   0.16  0.04  0.00  0.80  0.00  0.00  0.00  0.00  0.00
  C281                    1.00   0.16  0.00  0.00  0.84  0.00  0.00  0.00  0.00  0.00
  C282                    1.00   0.17  0.00  0.00  0.83  0.00  0.00  0.00  0.00  0.00
  C283                    1.00   0.18  0.00  0.00  0.82  0.00  0.00  0.00  0.00  0.00
  C284                    1.00   0.20  0.00  0.00  0.80  0.00  0.00  0.00  0.00  0.00
  C285                    1.00   0.21  0.00  0.00  0.79  0.00  0.00  0.00  0.00  0.00
  C286                    1.00   0.21  0.00  0.00  0.79  0.00  0.00  0.00  0.24  0.00
  C287                    1.00   0.18  0.03  0.00  0.79  0.00  0.00  0.00  0.23  0.00
  C288                    1.00   0.18  0.00  0.00  0.82  0.00  0.00  0.00  0.00  0.00
  C289                    1.00   0.21  0.00  0.00  0.79  0.00  0.00  0.00  0.00  0.00
  C290                    1.00   0.16  0.06  0.00  0.78  0.00  0.00  0.00  0.00  0.00
  C291                    1.00   0.16  0.00  0.00  0.84  0.00  0.00  0.00  0.03  0.00
  C292                    1.00   0.18  0.00  0.00  0.82  0.00  0.00  0.00  0.00  0.00
  C293                    1.00   0.19  0.00  0.00  0.81  0.00  0.00  0.00  0.00  0.00
  C294                    1.00   0.20  0.00  0.00  0.80  0.00  0.00  0.00  0.00  0.00
  C295                    1.00   0.22  0.00  0.00  0.78  0.00  0.00  0.00  0.00  0.00
  C296                    1.00   0.22  0.00  0.00  0.78  0.00  0.00  0.00  0.00  0.00
  C297                    1.00   0.22  0.00  0.00  0.78  0.00  0.00  0.00  0.00  0.00
  C298                    1.00   0.23  0.00  0.00  0.77  0.00  0.00  0.00  0.00  0.00
  C299                    1.00   0.23  0.00  0.00  0.77  0.00  0.00  0.00  0.00  0.00
  C300                    1.00   0.23  0.00  0.00  0.77  0.00  0.00  0.00  0.00  0.00
  C301                    1.00   0.23  0.00  0.00  0.77  0.00  0.00  0.00  0.00  0.00
  C302                    1.00   0.00  0.00  0.00  1.00  0.00  0.00  0.00  0.00  0.00
  C303                    1.00   0.00  0.00  0.00  1.00  0.00  0.00  0.00  0.00  0.00
  C353                    1.00   0.18  0.00  0.00  0.00  0.00  0.00  0.82  0.00  0.00
  
  
  *************************
  Conduit Surcharge Summary
  *************************
  
  ----------------------------------------------------------------------------
                                                           Hours        Hours 
                         --------- Hours Full --------   Above Full   Capacity
  Conduit                Both Ends  Upstream  Dnstream   Normal Flow   Limited
  ----------------------------------------------------------------------------
  FID1123                     0.01      0.01      0.49      0.01         0.01
  FID1139                     0.01      0.07      0.01      0.10         0.01
  FID4201                     0.01      0.11      0.01      0.19         0.01
  FID4202                     0.01      0.01      0.01      0.07         0.01
  FID4498                     0.01      0.01      1.46      0.01         0.01
  FID4882                     0.01      0.01      1.96      0.01         0.01
  FID4914                     0.01      0.01      2.07      0.01         0.01
  FID4917                     0.01      0.01      0.91      0.01         0.01
  C199                        0.01      0.01      0.01      8.53         0.01
  C200                        0.01      0.01      0.01      8.47         0.01
  C227                        0.01      0.01      0.01      0.52         0.01
  C262                        0.01      0.01      0.78      0.01         0.01
  
  
  ***************************
  Link Pollutant Load Summary
  ***************************
  
  --------------------------------------------------------------
                                 TSS            TP           TDP
  Link                            kg            kg            kg
  --------------------------------------------------------------
  FID1123                     22.175         0.002         0.010
  FID1139                    140.657         0.026         0.115
  FID1148                    248.183         0.061         0.244
  FID1149                    247.423         0.061         0.244
  FID3364                    302.511         0.076         0.302
  FID3671                     19.089         0.004         0.019
  FID3672                     67.858         0.024         0.088
  FID3762                    180.813         0.070         0.252
  FID3765                    318.287         0.100         0.379
  FID4112                    104.469         0.035         0.126
  FID4186                     25.438         0.009         0.033
  FID4187                     23.482         0.009         0.032
  FID4201                     55.690         0.027         0.087
  FID4202                     54.231         0.026         0.083
  FID4203                      0.000         0.000         0.000
  FID4299                      8.945         0.005         0.016
  FID4372                    816.443         0.216         0.231
  FID4498                     45.501         0.055         0.102
  FID4806                   1528.734         0.317         0.216
  FID4807                      0.000         0.000         0.001
  FID4882                      0.000         0.000         0.000
  FID4884                     90.302         0.008         0.049
  FID4914                     46.575         0.017         0.064
  FID4915                      0.362         0.001         0.004
  FID4916                      0.044         0.000         0.001
  FID4917                      0.019         0.000         0.000
  FID5307                     18.714         0.007         0.026
  FID5308                      7.234         0.006         0.017
  FID5312                     15.015         0.006         0.024
  FID5865                    390.361         1.029         0.499
  C9                         185.808         1.053         1.349
  C12                        184.893         1.037         1.330
  C13                        219.086         1.041         1.366
  C14                        143.407         0.686         0.904
  C52                        407.744         0.114         0.455
  C130                        18.089         0.007         0.023
  C131                        17.666         0.007         0.022
  C139                         4.947         0.001         0.004
  C191                       230.373         0.707         1.003
  C193                       231.829         0.689         0.981
  C194                       228.318         0.684         0.977
  C195                       227.807         0.682         0.974
  C196                       211.409         0.706         0.988
  C197                       546.485         0.779         1.351
  C198                       727.105         0.847         1.600
  C199                       730.736         0.845         1.601
  C200                       729.017         0.841         1.595
  C201                       739.802         0.838         1.592
  C202                       749.121         0.836         1.604
  C203                       747.827         0.832         1.600
  C204                       745.148         0.830         1.595
  C205                       948.898         0.886         1.807
  C206                      1052.107         0.918         1.928
  C207                      1056.757         0.916         1.932
  C208                      1078.482         0.918         1.956
  C209                      1067.476         0.912         1.939
  C210                      1068.419         0.910         1.937
  C211                      1066.709         0.908         1.934
  C212                      1385.699         1.011         2.315
  C213                      1388.270         1.012         2.321
  C214                      1388.719         1.011         2.320
  C215                      1503.346         1.035         2.440
  C216                      1434.247         1.012         2.374
  C217                      1490.126         1.036         2.455
  C218                      1894.698         1.146         2.905
  C219                      1901.224         1.145         2.909
  C220                      1904.545         1.142         2.907
  C221                      1950.795         1.143         2.954
  C222                      2117.149         1.186         3.131
  C223                      2312.053         1.245         3.352
  C224                      2341.660         1.246         3.378
  C225                      2347.991         1.239         3.381
  C226                      2346.945         1.235         3.377
  C227                      2457.754         1.247         3.466
  C228                      2410.294         1.231         3.441
  C229                      2662.418         1.306         3.749
  C230                      2667.568         1.309         3.760
  C231                      2702.691         1.311         3.787
  C232                      2683.088         1.302         3.763
  C233                      2770.338         1.308         3.836
  C234                      2701.570         1.292         3.774
  C235                      2716.925         1.300         3.800
  C236                      3530.358         1.514         4.028
  C237                      3561.498         1.517         4.041
  C238                      3842.454         1.592         4.390
  C239                      3823.533         1.586         4.375
  C240                      3809.738         1.582         4.365
  C241                      3816.356         1.587         4.381
  C242                      3841.093         1.594         4.409
  C243                      3954.814         1.612         4.485
  C244                      3892.328         1.601         4.469
  C245                      3895.645         1.600         4.469
  C246                      5543.686         1.934         4.721
  C247                      5461.640         1.917         4.743
  C248                      5501.768         1.921         4.748
  C249                      5442.072         1.907         4.728
  C250                      5441.583         1.910         4.741
  C251                      5444.118         1.910         4.741
  C252                      5741.056         1.983         5.040
  C253                      5775.968         1.987         5.047
  C254                      5793.175         1.987         5.048
  C255                      5783.598         1.983         5.041
  C256                      5808.908         2.032         5.134
  C257                      5790.969         2.030         5.143
  C258                      5792.258         2.029         5.141
  C259                      5827.952         2.034         5.148
  C260                      5791.003         2.025         5.135
  C261                      5889.300         2.034         5.184
  C262                      5934.024         2.037         5.186
  C263                      5897.601         2.027         5.173
  C264                      5889.045         2.023         5.166
  C265                      6264.805         3.041         5.659
  C266                      6284.325         3.052         5.663
  C267                      6278.013         3.046         5.658
  C268                      6298.616         3.056         5.660
  C269                      6282.320         3.033         5.657
  C270                      6305.009         3.045         5.661
  C271                      6284.631         3.032         5.654
  C272                      6280.824         3.030         5.652
  C273                      6550.002         3.102         5.900
  C274                      6545.219         3.098         5.895
  C275                      6540.744         3.094         5.892
  C276                      6538.645         3.091         5.889
  C277                      6534.074         3.087         5.886
  C278                      6533.145         3.086         5.884
  C279                      6535.566         3.086         5.882
  C280                      6529.561         3.082         5.880
  C281                      6668.579         3.106         5.993
  C282                      6672.151         3.107         5.993
  C283                      6689.366         3.113         6.014
  C284                      6690.738         3.113         6.013
  C285                      6693.314         3.113         6.012
  C286                      6696.466         3.114         6.011
  C287                      6696.472         3.112         6.009
  C288                      6693.898         3.110         6.006
  C289                      6693.128         3.109         6.004
  C290                      6693.658         3.108         6.003
  C291                      6687.900         3.104         6.001
  C292                      6870.956         3.116         6.093
  C293                      6869.195         3.114         6.091
  C294                      6870.880         3.114         6.090
  C295                      6865.525         3.111         6.087
  C296                      6866.928         3.111         6.087
  C297                      6870.544         3.112         6.087
  C298                      6870.878         3.111         6.085
  C299                      6866.771         3.109         6.083
  C300                      6869.109         3.109         6.082
  C301                      6865.683         3.106         6.080
  C302                       185.275         1.048         1.344
  C303                       231.584         0.700         0.995
  C353                       174.975         0.009         0.091
  

  Analysis begun on:  Tue Oct 10 17:36:08 2017
  Analysis ended on:  Tue Oct 10 17:36:22 2017
  Total elapsed time: 00:00:14