
  EPA STORM WATER MANAGEMENT MODEL - VERSION 5.1 (Build 5.1.010)
  --------------------------------------------------------------

  WARNING 04: minimum elevation drop used for Conduit C199
  WARNING 04: minimum elevation drop used for Conduit C200
  WARNING 02: maximum depth increased for Node FID1955
  WARNING 02: maximum depth increased for Node FID1960
  WARNING 02: maximum depth increased for Node FID1965
  WARNING 02: maximum depth increased for Node FID1968
  WARNING 02: maximum depth increased for Node FID2244
  WARNING 02: maximum depth increased for Node FID2442
  WARNING 02: maximum depth increased for Node FID2446
  WARNING 02: maximum depth increased for Node FID5504
  WARNING 02: maximum depth increased for Node FID5527
  WARNING 02: maximum depth increased for Node AFID6926
  WARNING 02: maximum depth increased for Node AFID7376
  
  *********************************************************
  NOTE: The summary statistics displayed in this report are
  based on results found at every computational time step,  
  not just on results from each reporting time step.
  *********************************************************
  
  ****************
  Analysis Options
  ****************
  Flow Units ............... CMS
  Process Models:
    Rainfall/Runoff ........ YES
    RDII ................... NO
    Snowmelt ............... NO
    Groundwater ............ NO
    Flow Routing ........... YES
    Ponding Allowed ........ YES
    Water Quality .......... YES
  Infiltration Method ...... GREEN_AMPT
  Flow Routing Method ...... DYNWAVE
  Starting Date ............ MAY-06-2016 15:00:00
  Ending Date .............. MAY-07-2016 00:00:00
  Antecedent Dry Days ...... 0.0
  Report Time Step ......... 00:01:00
  Wet Time Step ............ 00:01:00
  Dry Time Step ............ 01:00:00
  Routing Time Step ........ 5.00 sec
  Variable Time Step ....... YES
  Maximum Trials ........... 8
  Number of Threads ........ 3
  Head Tolerance ........... 0.001500 m
  
  
  **************************        Volume         Depth
  Runoff Quantity Continuity     hectare-m            mm
  **************************     ---------       -------
  Total Precipitation ......         2.583         6.709
  Evaporation Loss .........         0.000         0.000
  Infiltration Loss ........         1.270         3.298
  Surface Runoff ...........         1.033         2.682
  Final Storage ............         0.282         0.734
  Continuity Error (%) .....        -0.069
  
  
  **************************           TSS            TP           TDP
  Runoff Quality Continuity             kg            kg            kg
  **************************    ----------    ----------    ----------
  Initial Buildup ..........         0.000         0.000         0.000
  Surface Buildup ..........     10787.663         8.017        10.110
  Wet Deposition ...........         0.000         0.000         0.000
  Sweeping Removal .........         0.000         0.000         0.000
  Infiltration Loss ........         0.000         0.000         0.000
  BMP Removal ..............         0.576         0.000         0.000
  Surface Runoff ...........      5761.279         4.104         4.859
  Remaining Buildup ........      5025.808         3.912         5.250
  Continuity Error (%) .....         0.000         0.000         0.000
  
  
  **************************        Volume        Volume
  Flow Routing Continuity        hectare-m      10^6 ltr
  **************************     ---------     ---------
  Dry Weather Inflow .......         0.000         0.000
  Wet Weather Inflow .......         1.033        10.327
  Groundwater Inflow .......         0.000         0.000
  RDII Inflow ..............         0.000         0.000
  External Inflow ..........         1.384        13.843
  External Outflow .........         1.887        18.870
  Flooding Loss ............         0.000         0.000
  Evaporation Loss .........         0.000         0.000
  Exfiltration Loss ........         0.000         0.000
  Initial Stored Volume ....         0.000         0.000
  Final Stored Volume ......         0.535         5.354
  Continuity Error (%) .....        -0.229
  
  
  **************************           TSS            TP           TDP
  Quality Routing Continuity            kg            kg            kg
  **************************    ----------    ----------    ----------
  Dry Weather Inflow .......         0.000         0.000         0.000
  Wet Weather Inflow .......      5760.934         4.091         4.853
  Groundwater Inflow .......         0.000         0.000         0.000
  RDII Inflow ..............         0.000         0.000         0.000
  External Inflow ..........       137.985         1.039         1.284
  External Outflow .........      5700.903         4.772         5.677
  Flooding Loss ............         0.000         0.000         0.000
  Exfiltration Loss ........         0.000         0.000         0.000
  Mass Reacted .............         0.000         0.000         0.000
  Initial Stored Mass ......         0.000         0.000         0.000
  Final Stored Mass ........        39.605         0.351         0.495
  Continuity Error (%) .....         2.685         0.109        -0.575
  
  
  *************************
  Highest Continuity Errors
  *************************
  Node FID2824 (1.71%)
  Node J72 (1.34%)
  Node FID2449 (1.23%)
  Node J19 (1.20%)
  Node J81 (1.17%)
  
  
  ***************************
  Time-Step Critical Elements
  ***************************
  Link C241 (92.64%)
  Link C14 (6.53%)
  
  
  ********************************
  Highest Flow Instability Indexes
  ********************************
  All links are stable.
  
  
  *************************
  Routing Time Step Summary
  *************************
  Minimum Time Step           :     0.59 sec
  Average Time Step           :     0.93 sec
  Maximum Time Step           :     5.00 sec
  Percent in Steady State     :     0.00
  Average Iterations per Step :     2.00
  Percent Not Converging      :     0.02
  
  
  ***************************
  Subcatchment Runoff Summary
  ***************************
  
  --------------------------------------------------------------------------------------------------------
                            Total      Total      Total      Total      Total       Total     Peak  Runoff
                           Precip      Runon       Evap      Infil     Runoff      Runoff   Runoff   Coeff
  Subcatchment                 mm         mm         mm         mm         mm    10^6 ltr      CMS
  --------------------------------------------------------------------------------------------------------
  S0                         5.84       0.00       0.00       5.06       0.57        0.00     0.00   0.097
  S1                         5.84       0.00       0.00       2.64       2.33        0.23     0.07   0.399
  S2                         6.35       0.00       0.00       2.00       3.25        0.56     0.19   0.512
  S3                         5.84       0.00       0.00       3.85       1.46        0.05     0.04   0.250
  S4                         5.84       0.00       0.00       2.83       2.20        0.22     0.18   0.376
  S6                         6.35       0.00       0.00       1.11       3.92        0.07     0.02   0.618
  S7                         6.35       0.00       0.00       1.54       4.10        1.60     0.44   0.645
  S8                         6.35       0.00       0.00       1.11       3.93        0.00     0.00   0.619
  S9                         6.35       0.00       0.00       1.82       3.40        0.00     0.00   0.536
  S10                        6.35       0.00       0.00       1.93       3.32        0.01     0.00   0.522
  S11                        6.35       0.00       0.00       5.01       1.00        0.00     0.00   0.158
  S12                        6.35       0.00       0.00       2.16       3.15        0.00     0.00   0.496
  S13                        6.35       0.00       0.00       2.41       2.95        0.22     0.07   0.465
  S14                        6.35       0.00       0.00       4.47       1.41        0.01     0.00   0.222
  S16                        6.35       0.00       0.00       2.17       3.20        0.18     0.05   0.504
  S17                        6.35       0.00       0.00       2.10       3.17        0.61     0.20   0.500
  S18                        6.35       0.00       0.00       1.46       3.68        0.00     0.00   0.579
  S19                        6.35       0.00       0.00       3.50       2.13        0.05     0.02   0.336
  S20                        6.35       0.00       0.00       2.26       3.07        0.02     0.01   0.483
  S21                        6.35       0.00       0.00       4.56       1.72        0.92     0.21   0.270
  S22                        6.35       0.00       0.00       1.75       3.45        0.00     0.00   0.543
  S23                        6.35       0.00       0.00       3.86       1.87        0.03     0.01   0.295
  S24                        6.35       0.00       0.00       3.65       2.03        0.04     0.01   0.319
  S25                        6.35       0.00       0.00       2.47       2.90        0.04     0.01   0.457
  S27                        6.35       0.00       0.00       2.82       2.65        0.01     0.01   0.418
  S28                        5.84       0.00       0.00       5.83       0.01        0.00     0.00   0.001
  S29                        5.84       0.00       0.00       5.80       0.03        0.00     0.00   0.006
  S30                        6.35       0.00       0.00       6.33       0.02        0.00     0.00   0.003
  S31                        6.35       0.00       0.00       6.34       0.01        0.00     0.00   0.001
  S32                        6.35       0.00       0.00       4.70       1.24        0.01     0.00   0.196
  S33                        6.35       0.00       0.00       1.58       3.58        0.04     0.02   0.563
  S34                        6.35       0.00       0.00       3.10       2.20        0.78     0.26   0.347
  S35                        6.35       0.00       0.00       3.63       2.05        0.01     0.00   0.322
  S36                        6.35       0.00       0.00       5.06       0.97        0.01     0.01   0.152
  S37                        6.35       0.00       0.00       1.90       3.34        0.02     0.01   0.526
  S39                        6.35       0.00       0.00       3.78       1.93        0.29     0.10   0.304
  S40                        6.35       0.00       0.00       4.44       1.43        0.03     0.01   0.225
  S41                        6.35       0.00       0.00       2.24       3.08        0.42     0.14   0.485
  S42                        6.35       0.00       0.00       2.63       2.79        0.28     0.10   0.439
  S43                        6.35       0.00       0.00       4.76       1.20        0.02     0.01   0.188
  S44                        6.35       0.00       0.00       2.70       2.73        0.62     0.21   0.430
  S45                        8.13       0.00       0.00       4.58       2.92        0.00     0.00   0.359
  S47                        8.13       0.00       0.00       3.51       3.76        0.16     0.14   0.463
  S48                        8.13       0.00       0.00       4.16       3.27        0.01     0.01   0.402
  S49                        8.13       0.00       0.00       3.66       3.60        0.67     0.49   0.443
  S51                        8.13       0.00       0.00       6.99       0.94        0.01     0.01   0.116
  S52                        8.13       0.00       0.00       3.98       3.37        0.23     0.20   0.415
  S53                        8.13       0.00       0.00       3.83       3.47        0.48     0.38   0.427
  S54                        8.13       0.00       0.00       4.88       2.61        0.25     0.07   0.321
  S55                        8.13       0.00       0.00       3.99       3.32        0.54     0.16   0.409
  S56                        8.13       0.00       0.00       5.90       1.82        0.00     0.00   0.223
  S57                        8.13       0.00       0.00       3.46       3.75        0.04     0.01   0.462
  S58                        8.13       0.00       0.00       4.33       3.06        0.12     0.04   0.376
  S59                        8.13       0.00       0.00       7.00       0.90        0.02     0.01   0.111
  S60                        8.13       0.00       0.00       5.80       1.87        0.05     0.01   0.230
  S61                        8.13       0.00       0.00       7.16       0.78        0.01     0.00   0.096
  S62                        8.13       0.00       0.00       6.67       1.19        0.03     0.03   0.146
  S63                        6.35       0.00       0.00       5.34       0.76        0.01     0.01   0.119
  S64                        6.35       0.00       0.00       2.89       2.60        0.04     0.02   0.409
  S65                        6.35       0.00       0.00       4.24       1.58        0.27     0.09   0.248
  
  
  ****************************
  Subcatchment Washoff Summary
  ****************************
  
  --------------------------------------------------------------
                                 TSS            TP           TDP
  Subcatchment                    kg            kg            kg
  --------------------------------------------------------------
  S0                           0.300         0.000         0.001
  S1                          39.656         0.013         0.099
  S2                         172.218         0.099         0.207
  S3                          30.161         0.014         0.025
  S4                          90.172         0.045         0.104
  S6                           4.493         0.001         0.014
  S7                         236.522         0.862         0.195
  S8                           0.787         0.000         0.000
  S9                           0.902         0.001         0.000
  S10                          8.968         0.005         0.005
  S11                          0.883         0.001         0.000
  S12                          0.518         0.000         0.000
  S13                         31.396         0.011         0.058
  S14                         12.776         0.008         0.014
  S16                         60.181         0.062         0.147
  S17                        196.821         0.120         0.254
  S18                          0.913         0.001         0.000
  S19                         31.796         0.025         0.050
  S20                         15.020         0.010         0.011
  S21                       1610.300         1.054         0.319
  S22                          5.776         0.003         0.003
  S23                         15.167         0.017         0.041
  S24                         25.015         0.013         0.023
  S25                         10.617         0.012         0.031
  S27                         15.414         0.010         0.012
  S28                          0.000         0.000         0.000
  S29                          0.000         0.000         0.000
  S30                          0.000         0.000         0.000
  S31                          0.000         0.000         0.000
  S32                          2.659         0.002         0.010
  S33                         25.667         0.016         0.020
  S34                        954.443         0.266         0.345
  S35                          8.211         0.006         0.008
  S36                          7.374         0.003         0.026
  S37                         11.459         0.008         0.013
  S39                        169.337         0.121         0.265
  S40                         21.734         0.015         0.055
  S41                        181.531         0.103         0.171
  S42                        133.265         0.083         0.159
  S43                         13.290         0.007         0.047
  S44                        281.648         0.185         0.367
  S45                          1.305         0.001         0.001
  S47                         70.998         0.047         0.068
  S48                          8.343         0.005         0.005
  S49                        235.146         0.163         0.304
  S51                          7.370         0.008         0.024
  S52                         91.583         0.059         0.100
  S53                        164.319         0.095         0.165
  S54                        137.974         0.109         0.206
  S55                        197.273         0.146         0.293
  S56                          0.045         0.000         0.000
  S57                          4.541         0.006         0.018
  S58                         63.172         0.038         0.060
  S59                         40.276         0.018         0.033
  S60                         23.712         0.024         0.065
  S61                         12.918         0.004         0.017
  S62                         18.182         0.024         0.059
  S63                          8.951         0.001         0.024
  S64                         10.463         0.014         0.034
  S65                        237.319         0.138         0.282
  --------------------------------------------------------------
  System                    5761.279         4.104         4.859
  
  
  ******************
  Node Depth Summary
  ******************
  
  ---------------------------------------------------------------------------------
                                 Average  Maximum  Maximum  Time of Max    Reported
                                   Depth    Depth      HGL   Occurrence   Max Depth
  Node                 Type       Meters   Meters   Meters  days hr:min      Meters
  ---------------------------------------------------------------------------------
  FID1936              JUNCTION     0.15     0.40  1376.70     0  04:05        0.12
  FID1955              JUNCTION     0.16     0.33  1376.25     0  04:15        0.10
  FID1960              JUNCTION     0.15     0.27  1376.13     0  04:15        0.08
  FID1965              JUNCTION     0.15     0.26  1376.56     0  04:15        0.08
  FID1968              JUNCTION     0.13     0.21  1376.61     0  04:14        0.06
  FID2239              JUNCTION     0.15     0.29  1374.80     0  03:30        0.09
  FID2241              JUNCTION     0.13     0.20  1373.33     0  04:05        0.06
  FID2242              JUNCTION     0.13     0.22  1374.26     0  04:05        0.07
  FID2244              JUNCTION     0.13     0.19  1374.55     0  03:30        0.06
  FID2440              JUNCTION     0.38     0.62  1374.87     0  04:10        0.19
  FID2442              JUNCTION     0.00     0.00  1375.27     0  00:00        0.00
  FID2446              JUNCTION     0.16     0.56  1376.36     0  04:05        0.17
  FID2447              JUNCTION     0.15     0.47  1376.17     0  04:05        0.14
  FID2455              JUNCTION     0.29     0.57  1374.56     0  04:20        0.17
  FID2711              JUNCTION     0.13     0.25  1370.43     0  04:05        0.07
  FID2719              JUNCTION     0.17     0.91  1371.01     0  04:04        0.23
  FID2720              JUNCTION     0.16     0.39  1370.59     0  04:05        0.12
  FID2824              JUNCTION     0.12     0.18  1371.46     0  03:55        0.06
  FID2827              JUNCTION     0.13     0.23  1371.53     0  03:55        0.07
  FID2828              JUNCTION     0.13     0.23  1371.55     0  03:55        0.07
  FID2832              JUNCTION     0.16     0.31  1370.91     0  04:10        0.09
  FID2833              JUNCTION     0.21     0.48  1371.10     0  04:10        0.15
  FID2839              JUNCTION     0.18     0.35  1371.55     0  04:10        0.11
  FID2873              JUNCTION     0.16     0.29  1370.99     0  03:55        0.09
  FID2964              JUNCTION     0.17     0.34  1371.12     0  04:34        0.10
  FID2965              JUNCTION     0.42     0.86  1371.12     0  04:34        0.26
  FID4584              JUNCTION     0.13     0.30  1371.64     0  04:10        0.09
  FID5068              JUNCTION     0.13     0.20  1375.58     0  03:30        0.06
  FID5072              JUNCTION     0.47     0.79  1374.09     0  04:20        0.24
  FID5140              JUNCTION     0.16     0.30  1373.52     0  04:05        0.09
  FID5435              JUNCTION     0.16     0.26  1373.01     0  04:05        0.08
  FID5437              JUNCTION     0.12     0.18  1373.13     0  03:30        0.05
  FID5503              JUNCTION     0.12     0.16  1371.49     0  03:51        0.05
  FID5504              JUNCTION     0.15     0.25  1371.61     0  04:10        0.08
  FID5527              JUNCTION     0.14     0.21  1372.71     0  04:10        0.07
  FID5568              JUNCTION     0.46     0.83  1373.22     0  04:23        0.25
  FID5784              JUNCTION     0.47     0.84  1372.83     0  04:24        0.26
  FID5785              JUNCTION     0.14     0.24  1374.67     0  04:05        0.07
  AFID6926             JUNCTION     0.15     0.25  1370.05     0  04:15        0.08
  AFID7360             JUNCTION     0.48     0.94  1371.07     0  04:34        0.29
  AFID7363             JUNCTION     0.46     0.93  1371.10     0  04:34        0.28
  AFID7376             JUNCTION     0.19     0.41  1371.64     0  04:10        0.12
  AFID7377             JUNCTION     0.39     0.74  1371.42     0  04:32        0.23
  AFID7705             JUNCTION     0.48     0.59  1375.56     0  04:15        0.18
  AFID7706             JUNCTION     0.54     0.64  1375.56     0  04:15        0.20
  AFID7792             JUNCTION     0.17     0.39  1375.19     0  04:05        0.12
  AFID8223             JUNCTION     0.47     0.84  1372.84     0  04:24        0.26
  J1                   JUNCTION     0.70     0.73  1375.72     0  04:15        0.22
  FID4901              JUNCTION     0.43     0.52  1375.59     0  04:15        0.16
  J9                   JUNCTION     0.59     0.62  1375.71     0  04:15        0.19
  J11                  JUNCTION     0.44     0.47  1375.68     0  04:16        0.14
  J12                  JUNCTION     0.43     0.50  1375.62     0  04:15        0.15
  J13                  JUNCTION     0.43     0.52  1375.60     0  04:15        0.16
  FID4902              JUNCTION     0.45     0.54  1375.59     0  04:15        0.16
  J14                  JUNCTION     0.36     0.52  1375.44     0  04:05        0.16
  J15                  JUNCTION     0.34     0.55  1375.21     0  04:06        0.17
  J16                  JUNCTION     0.35     0.55  1375.19     0  04:06        0.17
  FID2449              JUNCTION     0.38     0.62  1374.94     0  04:10        0.19
  J17                  JUNCTION     0.28     0.57  1374.54     0  04:20        0.17
  J19                  JUNCTION     0.41     0.74  1374.29     0  04:22        0.23
  FID5069              JUNCTION     0.49     0.82  1374.08     0  04:21        0.25
  FID5139              JUNCTION     0.47     0.84  1373.19     0  04:22        0.26
  J24                  JUNCTION     0.47     0.84  1373.20     0  04:22        0.26
  FID4984              JUNCTION     0.49     0.86  1372.82     0  04:25        0.26
  FID2669              JUNCTION     0.36     0.73  1369.17     0  04:37        0.22
  FID2712              JUNCTION     0.38     0.78  1369.97     0  04:35        0.24
  FID2718              JUNCTION     0.38     0.79  1370.03     0  04:35        0.24
  FID2838              JUNCTION     0.55     1.02  1370.96     0  04:32        0.31
  FID2825              JUNCTION     0.60     1.09  1371.00     0  04:33        0.33
  FID2823              JUNCTION     0.65     1.15  1371.02     0  04:34        0.35
  FID5505              JUNCTION     0.54     1.03  1371.05     0  04:34        0.31
  FID5436              JUNCTION     0.50     0.85  1372.18     0  04:30        0.26
  FID5438              JUNCTION     0.43     0.79  1372.21     0  04:30        0.24
  J49                  JUNCTION     0.47     0.56  1375.58     0  04:15        0.17
  J50                  JUNCTION     0.51     0.61  1375.57     0  04:15        0.18
  J51                  JUNCTION     0.56     0.67  1375.56     0  04:15        0.20
  J52                  JUNCTION     0.57     0.68  1375.56     0  04:15        0.21
  J53                  JUNCTION     0.36     0.52  1375.44     0  04:05        0.16
  J54                  JUNCTION     0.37     0.50  1375.46     0  04:05        0.15
  J55                  JUNCTION     0.41     0.52  1375.54     0  04:15        0.16
  J56                  JUNCTION     0.39     0.50  1375.52     0  04:09        0.15
  J57                  JUNCTION     0.37     0.48  1375.50     0  04:07        0.15
  J58                  JUNCTION     0.37     0.49  1375.47     0  04:06        0.15
  FID1935              JUNCTION     0.37     0.53  1375.42     0  04:05        0.16
  J59                  JUNCTION     0.37     0.53  1375.40     0  04:05        0.16
  J60                  JUNCTION     0.36     0.52  1375.35     0  04:06        0.16
  J61                  JUNCTION     0.34     0.52  1375.28     0  04:07        0.16
  J62                  JUNCTION     0.33     0.51  1375.27     0  04:07        0.16
  J63                  JUNCTION     0.35     0.54  1375.23     0  04:06        0.17
  J64                  JUNCTION     0.33     0.54  1375.16     0  04:07        0.16
  J65                  JUNCTION     0.30     0.52  1375.10     0  04:08        0.16
  J66                  JUNCTION     0.38     0.61  1374.83     0  04:10        0.19
  J67                  JUNCTION     0.38     0.61  1374.76     0  04:11        0.19
  J68                  JUNCTION     0.36     0.59  1374.66     0  04:12        0.18
  J69                  JUNCTION     0.49     0.79  1374.52     0  04:20        0.24
  J70                  JUNCTION     0.47     0.77  1374.42     0  04:21        0.24
  J71                  JUNCTION     0.45     0.76  1374.36     0  04:21        0.23
  J72                  JUNCTION     0.48     0.80  1374.15     0  04:22        0.24
  J73                  JUNCTION     0.49     0.82  1374.04     0  04:21        0.25
  J74                  JUNCTION     0.50     0.82  1373.80     0  04:24        0.25
  J75                  JUNCTION     0.50     0.82  1373.66     0  04:26        0.25
  J76                  JUNCTION     0.47     0.84  1373.18     0  04:22        0.26
  J77                  JUNCTION     0.47     0.84  1373.05     0  04:23        0.26
  J78                  JUNCTION     0.47     0.84  1372.91     0  04:24        0.26
  J79                  JUNCTION     0.47     0.84  1372.85     0  04:24        0.26
  J80                  JUNCTION     0.40     0.76  1372.25     0  04:30        0.23
  J81                  JUNCTION     0.48     0.83  1371.82     0  04:33        0.25
  J82                  JUNCTION     0.48     0.82  1371.75     0  04:33        0.25
  J83                  JUNCTION     0.40     0.77  1371.57     0  04:33        0.24
  J84                  JUNCTION     0.37     0.70  1371.34     0  04:33        0.21
  J85                  JUNCTION     0.37     0.73  1371.25     0  04:34        0.22
  J86                  JUNCTION     0.39     0.80  1371.17     0  04:34        0.24
  J87                  JUNCTION     0.45     0.91  1371.10     0  04:34        0.28
  J88                  JUNCTION     0.53     1.01  1371.05     0  04:34        0.31
  J89                  JUNCTION     0.57     1.06  1371.04     0  04:34        0.32
  J90                  JUNCTION     0.53     0.99  1370.94     0  04:32        0.30
  J91                  JUNCTION     0.53     0.99  1370.88     0  04:33        0.30
  J92                  JUNCTION     0.53     0.99  1370.83     0  04:33        0.30
  J93                  JUNCTION     0.52     0.99  1370.71     0  04:33        0.30
  J94                  JUNCTION     0.52     0.99  1370.65     0  04:32        0.30
  J95                  JUNCTION     0.52     0.99  1370.63     0  04:32        0.30
  J96                  JUNCTION     0.52     0.98  1370.54     0  04:32        0.30
  J97                  JUNCTION     0.51     0.97  1370.47     0  04:33        0.30
  J98                  JUNCTION     0.50     0.96  1370.40     0  04:34        0.29
  J99                  JUNCTION     0.49     0.94  1370.34     0  04:34        0.29
  J100                 JUNCTION     0.48     0.92  1370.28     0  04:35        0.28
  J101                 JUNCTION     0.46     0.89  1370.21     0  04:35        0.27
  J102                 JUNCTION     0.38     0.79  1370.06     0  04:35        0.24
  J103                 JUNCTION     0.38     0.79  1370.01     0  04:35        0.24
  J104                 JUNCTION     0.37     0.77  1369.93     0  04:35        0.23
  J105                 JUNCTION     0.37     0.75  1369.88     0  04:35        0.23
  J106                 JUNCTION     0.36     0.72  1369.80     0  04:36        0.22
  J107                 JUNCTION     0.36     0.72  1369.66     0  04:36        0.22
  J108                 JUNCTION     0.36     0.72  1369.52     0  04:37        0.22
  J109                 JUNCTION     0.36     0.72  1369.41     0  04:37        0.22
  J110                 JUNCTION     0.36     0.72  1369.31     0  04:37        0.22
  J111                 JUNCTION     0.36     0.73  1369.21     0  04:37        0.22
  J112                 JUNCTION     0.36     0.73  1369.05     0  04:38        0.22
  J113                 JUNCTION     0.36     0.73  1368.95     0  04:38        0.22
  J114                 JUNCTION     0.36     0.73  1368.84     0  04:38        0.22
  J115                 JUNCTION     0.35     0.73  1368.78     0  04:38        0.22
  J116                 JUNCTION     0.35     0.72  1368.71     0  04:39        0.22
  J117                 JUNCTION     0.35     0.72  1368.60     0  04:39        0.22
  J118                 JUNCTION     0.36     0.72  1368.49     0  04:39        0.22
  J119                 JUNCTION     0.36     0.71  1368.42     0  04:39        0.22
  J120                 JUNCTION     0.37     0.70  1368.30     0  04:39        0.21
  FID2451              JUNCTION     0.38     0.61  1374.89     0  04:10        0.19
  J121                 JUNCTION     0.38     0.74  1371.49     0  04:33        0.23
  J122                 JUNCTION     0.38     0.74  1371.46     0  04:33        0.23
  FID3706              JUNCTION     0.52     0.99  1370.73     0  04:33        0.30
  FID2831              JUNCTION     0.52     0.99  1370.61     0  04:32        0.30
  FID2689              OUTFALL      0.26     0.51  1368.01     0  04:39        0.16
  
  
  *******************
  Node Inflow Summary
  *******************
  
  -------------------------------------------------------------------------------------------------
                                  Maximum  Maximum                  Lateral       Total        Flow
                                  Lateral    Total  Time of Max      Inflow      Inflow     Balance
                                   Inflow   Inflow   Occurrence      Volume      Volume       Error
  Node                 Type           CMS      CMS  days hr:min    10^6 ltr    10^6 ltr     Percent
  -------------------------------------------------------------------------------------------------
  FID1936              JUNCTION     0.197    0.197     0  04:05       0.226       0.226       0.072
  FID1955              JUNCTION     0.162    0.162     0  04:15       0.541       0.541       0.031
  FID1960              JUNCTION     0.074    0.074     0  04:15       0.247       0.247       0.068
  FID1965              JUNCTION     0.037    0.037     0  04:15       0.124       0.124       0.140
  FID1968              JUNCTION     0.011    0.011     0  04:15      0.0375      0.0375       0.467
  FID2239              JUNCTION     0.014    0.014     0  03:30      0.0388      0.0388       1.326
  FID2241              JUNCTION     0.000    0.012     0  04:05           0      0.0365       0.473
  FID2242              JUNCTION     0.013    0.013     0  04:05      0.0367      0.0367       0.494
  FID2244              JUNCTION     0.007    0.007     0  03:30      0.0142      0.0142       1.241
  FID2440              JUNCTION     0.000    1.277     0  04:08           0        15.3       0.227
  FID2442              JUNCTION     0.000    0.000     0  00:00           0           0       0.000 ltr
  FID2446              JUNCTION     0.141    0.141     0  04:05        0.16        0.16       1.159
  FID2447              JUNCTION     0.000    0.138     0  04:05           0       0.158      -0.334
  FID2455              JUNCTION     0.097    1.320     0  04:11       0.283        15.4       0.209
  FID2711              JUNCTION     0.000    0.043     0  04:05           0       0.047       0.340
  FID2719              JUNCTION     0.180    0.180     0  04:05       0.219       0.219       0.208
  FID2720              JUNCTION     0.043    0.043     0  04:05      0.0472      0.0472       0.436
  FID2824              JUNCTION     0.000    0.004     0  03:55    0.000646     0.00966       1.742
  FID2827              JUNCTION     0.000    0.003     0  03:55    0.000732     0.00912       1.157
  FID2828              JUNCTION     0.003    0.003     0  04:10     0.00864     0.00864       3.017
  FID2832              JUNCTION     0.000    0.189     0  04:10           0       0.561       0.054
  FID2833              JUNCTION     0.189    0.189     0  04:10       0.561       0.561       0.044
  FID2839              JUNCTION     0.443    0.443     0  04:10         1.6         1.6       0.025
  FID2873              JUNCTION     0.025    0.025     0  04:10      0.0736      0.0736       0.910
  FID2964              JUNCTION     0.049    0.049     0  04:10       0.178       0.178       0.095
  FID2965              JUNCTION     0.000    1.847     0  04:33           0          17       0.268
  FID4584              JUNCTION     0.000    0.002     0  03:32           0    0.000864      19.184
  FID5068              JUNCTION     0.008    0.008     0  03:30      0.0175      0.0175       1.006
  FID5072              JUNCTION     0.099    1.447     0  04:20       0.286        15.5       0.198
  FID5140              JUNCTION     0.257    0.257     0  04:05       0.778       0.778       0.013
  FID5435              JUNCTION     0.210    0.210     0  04:05       0.919       0.919       0.020
  FID5437              JUNCTION     0.002    0.002     0  03:30     0.00476     0.00476       3.795
  FID5503              JUNCTION     0.000    0.000     0  03:28     0.00069     0.00069      33.616
  FID5504              JUNCTION     0.075    0.075     0  04:10       0.223       0.223       0.120
  FID5527              JUNCTION     0.016    0.016     0  04:10       0.046       0.046       0.379
  FID5568              JUNCTION     0.004    1.422     0  04:26     0.00682        15.2       0.697
  FID5784              JUNCTION     0.000    1.642     0  04:22           0          16       0.096
  FID5785              JUNCTION     0.000    0.013     0  04:05           0      0.0383       0.388
  AFID6926             JUNCTION     0.075    0.075     0  04:15       0.228       0.228       0.077
  AFID7360             JUNCTION     0.000    1.848     0  04:36    0.000417        16.9       0.196
  AFID7363             JUNCTION     0.000    1.848     0  04:35           0        16.9       0.097
  AFID7376             JUNCTION     0.203    0.203     0  04:10        0.61        0.61      -0.003
  AFID7377             JUNCTION     0.000    1.835     0  04:30           0          17       0.106
  AFID7705             JUNCTION     0.000    0.726     0  04:15           0        14.1       0.268
  AFID7706             JUNCTION     0.000    0.652     0  04:16           0        13.9       0.259
  AFID7792             JUNCTION     0.207    0.207     0  04:05       0.617       0.617       0.024
  AFID8223             JUNCTION     0.000    1.634     0  04:22           0          16       0.022
  J1                   JUNCTION     0.667    0.667     0  04:15          21          21       0.151
  FID4901              JUNCTION     0.000    0.486     0  04:19           0        13.8       0.234
  J9                   JUNCTION     0.000    0.667     0  04:15           0          21       0.303
  J11                  JUNCTION     0.000    0.666     0  04:15           0        20.9       0.523
  J12                  JUNCTION     0.007    0.672     0  04:20      0.0229        20.8       0.571
  J13                  JUNCTION    -0.220    0.680     0  04:20       -7.13        20.7      -0.191
  FID4902              JUNCTION     0.000    0.495     0  04:15           0        13.8       0.367
  J14                  JUNCTION     0.379    0.906     0  04:05       0.484        14.3       0.192
  J15                  JUNCTION     0.493    1.261     0  04:05       0.675        14.9       0.157
  J16                  JUNCTION     0.008    1.245     0  04:05     0.00942        14.9       0.158
  FID2449              JUNCTION     0.001    1.143     0  04:08     0.00136        14.7       1.249
  J17                  JUNCTION     0.144    1.402     0  04:20       0.419        15.8       0.100
  J19                  JUNCTION     0.019    1.386     0  04:21      0.0365        15.6       1.218
  FID5069              JUNCTION     0.000    1.449     0  04:20           0        15.5       0.178
  FID5139              JUNCTION     0.000    1.597     0  04:21           0        15.9       0.051
  J24                  JUNCTION     0.018    1.434     0  04:25      0.0415        15.1       0.079
  FID4984              JUNCTION     0.000    1.647     0  04:22           0        16.1       0.794
  FID2669              JUNCTION     0.000    2.210     0  04:37           0          19       0.062
  FID2712              JUNCTION     0.000    2.187     0  04:35           0        18.9       0.077
  FID2718              JUNCTION     0.000    2.175     0  04:35           0        18.9       0.054
  FID2838              JUNCTION     0.000    2.060     0  04:30           0        18.4       0.164
  FID2825              JUNCTION     0.000    1.876     0  04:37           0        16.9       0.297
  FID2823              JUNCTION     0.000    1.872     0  04:36           0          17       0.472
  FID5505              JUNCTION     0.000    1.867     0  04:35           0          17       0.124
  FID5436              JUNCTION     0.000    1.771     0  04:29           0        16.8       0.777
  FID5438              JUNCTION     0.000    1.636     0  04:31           0        15.9       0.144
  J49                  JUNCTION     0.000    0.498     0  04:19           0        13.7       0.587
  J50                  JUNCTION     0.000    0.505     0  04:19    0.000279        13.6       1.029
  J51                  JUNCTION     0.000    0.515     0  04:18           0        13.5       0.830
  J52                  JUNCTION     0.000    0.529     0  04:33           0        13.4       0.246
  J53                  JUNCTION     0.000    0.742     0  04:15           0        13.8       0.209
  J54                  JUNCTION     0.000    0.737     0  04:15           0        13.9       0.310
  J55                  JUNCTION     0.000    0.726     0  04:15           0        14.1       0.297
  J56                  JUNCTION     0.000    0.726     0  04:15           0          14       0.318
  J57                  JUNCTION     0.000    0.728     0  04:15           0          14       0.397
  J58                  JUNCTION     0.002    0.732     0  04:15     0.00674        13.9       0.424
  FID1935              JUNCTION     0.000    1.084     0  04:05           0        14.5       0.246
  J59                  JUNCTION     0.000    1.061     0  04:05           0        14.4       0.341
  J60                  JUNCTION     0.008    1.024     0  04:05     0.00948        14.4       0.535
  J61                  JUNCTION     0.000    0.955     0  04:06           0        14.3       0.359
  J62                  JUNCTION     0.000    0.944     0  04:07           0        14.3       0.161
  J63                  JUNCTION     0.000    0.948     0  04:07           0        14.3       0.164
  J64                  JUNCTION     0.000    1.227     0  04:05           0        14.9       0.164
  J65                  JUNCTION     0.026    1.227     0  04:05      0.0302        14.9       0.950
  J66                  JUNCTION     0.000    1.272     0  04:09           0        15.3       0.287
  J67                  JUNCTION     0.000    1.267     0  04:10           0        15.2       0.428
  J68                  JUNCTION     0.011    1.266     0  04:10      0.0231        15.2       0.464
  J69                  JUNCTION     0.000    1.399     0  04:20           0        15.8       0.449
  J70                  JUNCTION     0.006    1.395     0  04:20      0.0116        15.7       0.575
  J71                  JUNCTION     0.000    1.387     0  04:21           0        15.6       0.414
  J72                  JUNCTION     0.011    1.382     0  04:22      0.0314        15.4       1.357
  J73                  JUNCTION     0.000    1.446     0  04:20           0        15.5       0.393
  J74                  JUNCTION     0.000    1.438     0  04:20           0        15.4       0.578
  J75                  JUNCTION     0.006    1.429     0  04:22      0.0121        15.3       0.898
  J76                  JUNCTION     0.000    1.597     0  04:22           0        15.9       0.212
  J77                  JUNCTION     0.089    1.654     0  04:20       0.266        16.1       0.389
  J78                  JUNCTION     0.000    1.643     0  04:21           0        16.1       0.293
  J79                  JUNCTION     0.000    1.635     0  04:22           0          16       0.107
  J80                  JUNCTION     0.014    1.641     0  04:25      0.0307          16       0.652
  J81                  JUNCTION     0.002    1.774     0  04:30     0.00536        16.7       1.182
  J82                  JUNCTION     0.000    1.763     0  04:32           0        16.5       0.467
  J83                  JUNCTION     0.000    1.761     0  04:33           0        16.4       0.347
  J84                  JUNCTION     0.000    1.834     0  04:30           0        16.9       0.184
  J85                  JUNCTION     0.000    1.831     0  04:31           0        16.9       0.343
  J86                  JUNCTION     0.000    1.826     0  04:33           0        16.8       0.354
  J87                  JUNCTION     0.003    1.847     0  04:35     0.00827        16.9       0.150
  J88                  JUNCTION     0.000    1.850     0  04:36           0        16.9       0.227
  J89                  JUNCTION     0.000    1.868     0  04:36           0          17       0.342
  J90                  JUNCTION     0.000    2.058     0  04:30           0        18.4       0.115
  J91                  JUNCTION     0.000    2.056     0  04:31           0        18.4       0.161
  J92                  JUNCTION     0.000    2.055     0  04:32    3.51e-06        18.4       0.200
  J93                  JUNCTION     0.000    2.063     0  04:33           0        18.4       0.107
  J94                  JUNCTION     0.000    2.063     0  04:33    6.21e-06        18.4       0.123
  J95                  JUNCTION     0.000    2.064     0  04:34           0        18.3       0.047
  J96                  JUNCTION     0.000    2.125     0  04:31           0        18.9       0.172
  J97                  JUNCTION     0.000    2.124     0  04:32           0        18.8       0.147
  J98                  JUNCTION     0.000    2.122     0  04:32           0        18.8       0.129
  J99                  JUNCTION     0.000    2.121     0  04:32           0        18.8       0.110
  J100                 JUNCTION     0.000    2.119     0  04:33           0        18.8       0.093
  J101                 JUNCTION     0.000    2.118     0  04:33           0        18.7       0.107
  J102                 JUNCTION     0.000    2.116     0  04:34           0        18.7       0.084
  J103                 JUNCTION     0.000    2.173     0  04:35           0        18.9       0.062
  J104                 JUNCTION     0.000    2.186     0  04:35           0        18.9       0.082
  J105                 JUNCTION     0.000    2.184     0  04:35           0        18.9       0.102
  J106                 JUNCTION     0.000    2.183     0  04:35           0        18.9       0.114
  J107                 JUNCTION     0.000    2.181     0  04:36           0        18.9       0.117
  J108                 JUNCTION     0.000    2.179     0  04:36    2.17e-05        18.9       0.105
  J109                 JUNCTION     0.000    2.178     0  04:36           0        18.8       0.089
  J110                 JUNCTION     0.000    2.176     0  04:37           0        18.8       0.086
  J111                 JUNCTION     0.000    2.175     0  04:37    0.000186        18.8       0.064
  J112                 JUNCTION     0.000    2.209     0  04:37           0          19       0.089
  J113                 JUNCTION     0.000    2.208     0  04:38           0          19       0.087
  J114                 JUNCTION     0.000    2.207     0  04:38           0          19       0.074
  J115                 JUNCTION     0.000    2.206     0  04:38           0          19       0.054
  J116                 JUNCTION     0.000    2.206     0  04:38    6.13e-06        18.9       0.072
  J117                 JUNCTION     0.000    2.205     0  04:38           0        18.9       0.089
  J118                 JUNCTION     0.000    2.205     0  04:39           0        18.9       0.077
  J119                 JUNCTION     0.000    2.204     0  04:39           0        18.9       0.074
  J120                 JUNCTION     0.000    2.204     0  04:39           0        18.9       0.092
  FID2451              JUNCTION     0.000    1.130     0  04:09           0        14.7       0.227
  J121                 JUNCTION     0.006    1.762     0  04:34      0.0162        16.4       0.105
  J122                 JUNCTION     0.000    1.763     0  04:35    0.000736        16.4       0.093
  FID3706              JUNCTION     0.000    2.062     0  04:33           0        18.4       0.159
  FID2831              JUNCTION     0.000    2.127     0  04:31           0        18.9       0.102
  FID2689              OUTFALL      0.000    2.204     0  04:39           0        18.9       0.000
  
  
  **********************
  Node Surcharge Summary
  **********************
  
  Surcharging occurs when water rises above the top of the highest conduit.
  ---------------------------------------------------------------------
                                               Max. Height   Min. Depth
                                   Hours       Above Crown    Below Rim
  Node                 Type      Surcharged         Meters       Meters
  ---------------------------------------------------------------------
  FID2446              JUNCTION        0.07          0.031        0.000
  FID2719              JUNCTION        0.05          0.381        0.000
  
  
  *********************
  Node Flooding Summary
  *********************
  
  Flooding refers to all water that overflows a node, whether it ponds or not.
  --------------------------------------------------------------------------
                                                             Total   Maximum
                                 Maximum   Time of Max       Flood    Ponded
                        Hours       Rate    Occurrence      Volume     Depth
  Node                 Flooded       CMS   days hr:min    10^6 ltr    Meters
  --------------------------------------------------------------------------
  FID2446                 0.07     0.004      0  03:34       0.001     0.031
  
  
  ***********************
  Outfall Loading Summary
  ***********************
  
  -----------------------------------------------------------------------------------------------------
                         Flow       Avg       Max       Total         Total         Total         Total
                         Freq      Flow      Flow      Volume           TSS            TP           TDP
  Outfall Node           Pcnt       CMS       CMS    10^6 ltr            kg            kg            kg
  -----------------------------------------------------------------------------------------------------
  FID2689               77.01     1.009     2.204      18.870      5632.653         4.412         5.221
  -----------------------------------------------------------------------------------------------------
  System                77.01     1.009     2.204      18.870      5632.653         4.412         5.221
  
  
  ********************
  Link Flow Summary
  ********************
  
  -----------------------------------------------------------------------------
                                 Maximum  Time of Max   Maximum    Max/    Max/
                                  |Flow|   Occurrence   |Veloc|    Full    Full
  Link                 Type          CMS  days hr:min     m/sec    Flow   Depth
  -----------------------------------------------------------------------------
  FID1123              CONDUIT     0.025     0  04:10      0.82    0.42    0.71
  FID1139              CONDUIT     0.180     0  04:05      1.66    1.30    0.91
  FID1148              CONDUIT     0.189     0  04:10      1.07    0.47    0.31
  FID1149              CONDUIT     0.189     0  04:10      2.24    0.06    0.36
  FID3364              CONDUIT     0.202     0  04:10      1.01    0.17    0.44
  FID3671              CONDUIT     0.011     0  04:14      1.13    0.08    0.19
  FID3672              CONDUIT     0.037     0  04:15      1.59    0.27    0.36
  FID3762              CONDUIT     0.074     0  04:15      1.91    0.22    0.47
  FID3765              CONDUIT     0.162     0  04:15      2.77    0.46    0.57
  FID4112              CONDUIT     0.196     0  04:05      1.78    0.34    0.40
  FID4186              CONDUIT     0.012     0  04:05      0.98    0.06    0.17
  FID4187              CONDUIT     0.012     0  04:05      1.54    0.03    0.12
  FID4201              CONDUIT     0.138     0  04:05      1.27    1.42    0.91
  FID4202              CONDUIT     0.138     0  04:05      1.46    1.00    0.77
  FID4203              CONDUIT     0.000     0  00:00      0.00    0.00    0.31
  FID4299              CONDUIT     0.008     0  03:30      0.99    0.03    0.12
  FID4372              CONDUIT     0.257     0  04:05      1.06    0.04    0.39
  FID4498              CONDUIT     0.049     0  04:10      0.48    0.13    0.71
  FID4806              CONDUIT     0.210     0  04:05      5.05    0.03    0.11
  FID4807              CONDUIT     0.002     0  03:30      0.76    0.01    0.08
  FID4882              CONDUIT     0.000     0  03:51      0.01    0.00    0.52
  FID4884              CONDUIT     0.075     0  04:10      1.93    0.02    0.18
  FID4914              CONDUIT     0.016     0  04:10      0.23    0.06    0.58
  FID4915              CONDUIT     0.003     0  03:55      0.24    0.09    0.21
  FID4916              CONDUIT     0.003     0  03:55      0.29    0.09    0.16
  FID4917              CONDUIT     0.004     0  03:55      0.76    0.01    0.54
  FID5307              CONDUIT     0.013     0  04:05      0.48    0.24    0.30
  FID5308              CONDUIT     0.007     0  03:30      1.24    0.04    0.13
  FID5312              CONDUIT     0.013     0  04:05      0.63    0.08    0.18
  FID5865              CONDUIT     0.443     0  04:10      4.73    0.14    0.37
  C9                   CHANNEL     0.667     0  04:15      0.66    0.07    0.48
  C12                  CHANNEL     0.668     0  04:20      0.46    0.29    0.57
  C13                  CHANNEL     0.680     0  04:20      0.62    0.30    0.59
  C14                  CHANNEL     0.465     0  04:34      0.69    0.20    0.60
  C52                  CONDUIT     0.207     0  04:05      1.54    0.32    0.56
  C130                 CONDUIT     0.043     0  04:05      0.66    0.80    0.41
  C131                 CONDUIT     0.043     0  04:05      1.48    0.09    0.47
  C139                 CONDUIT     0.002     0  03:32      0.09    0.02    0.52
  C191                 CHANNEL     0.498     0  04:19      0.48    0.22    0.64
  C193                 CHANNEL     0.515     0  04:18      0.38    0.23    0.74
  C194                 CHANNEL     0.529     0  04:33      0.30    0.23    0.79
  C195                 CHANNEL     0.533     0  04:33      0.35    0.10    0.63
  C196                 CONDUIT     0.488     0  04:19      0.45    0.35    0.67
  C197                 CONDUIT     0.654     0  04:15      0.24    0.31    0.88
  C198                 CHANNEL     0.726     0  04:15      0.31    0.14    0.52
  C199                 CHANNEL     0.726     0  04:15      0.32    3.17    0.61
  C200                 CHANNEL     0.728     0  04:15      0.34    2.87    0.58
  C201                 CHANNEL     0.731     0  04:15      0.35    0.22    0.49
  C202                 CHANNEL     0.737     0  04:15      0.35    0.22    0.50
  C203                 CHANNEL     0.742     0  04:15      0.35    0.22    0.51
  C204                 CHANNEL     0.747     0  04:15      0.51    0.22    0.52
  C205                 CONDUIT     0.889     0  04:05      0.35    0.61    0.64
  C206                 CHANNEL     1.061     0  04:05      0.43    0.31    0.53
  C207                 CHANNEL     1.019     0  04:05      0.42    0.30    0.52
  C208                 CHANNEL     0.955     0  04:06      0.40    0.28    0.52
  C209                 CHANNEL     0.944     0  04:07      0.40    0.28    0.52
  C210                 CHANNEL     0.948     0  04:07      0.48    0.29    0.61
  C211                 CHANNEL     0.955     0  04:08      0.47    0.35    0.56
  C212                 CONDUIT     1.238     0  04:05      0.47    0.72    0.67
  C213                 CHANNEL     1.227     0  04:05      0.60    0.44    0.56
  C214                 CHANNEL     1.209     0  04:05      0.63    0.44    0.54
  C215                 CONDUIT     1.142     0  04:08      0.41    0.66    0.69
  C216                 CONDUIT     1.118     0  04:09      0.51    0.83    0.58
  C217                 CONDUIT     1.128     0  04:09      0.43    0.45    0.45
  C218                 CHANNEL     1.272     0  04:09      0.54    0.46    0.63
  C219                 CHANNEL     1.267     0  04:10      0.54    0.46    0.62
  C220                 CHANNEL     1.261     0  04:10      0.55    0.46    0.61
  C221                 CHANNEL     1.260     0  04:11      0.57    0.46    0.59
  C222                 CONDUIT     1.316     0  04:11      0.55    0.88    0.69
  C223                 CHANNEL     1.399     0  04:20      1.38    0.17    0.60
  C224                 CHANNEL     1.392     0  04:12      0.52    0.90    0.91
  C225                 CHANNEL     1.387     0  04:21      0.53    0.90    0.89
  C226                 CHANNEL     1.382     0  04:21      0.54    0.90    0.88
  C227                 CONDUIT     1.378     0  04:23      0.42    1.12    0.94
  C228                 CHANNEL     1.387     0  04:23      0.68    0.57    0.74
  C229                 CONDUIT     1.443     0  04:20      0.34    0.25    0.54
  C230                 CHANNEL     1.446     0  04:20      0.67    0.59    0.76
  C231                 CHANNEL     1.438     0  04:20      0.67    0.59    0.76
  C232                 CHANNEL     1.429     0  04:22      0.67    0.58    0.76
  C233                 CHANNEL     1.421     0  04:26      0.66    0.58    0.76
  C234                 CONDUIT     1.431     0  04:25      0.50    0.59    0.61
  C235                 CHANNEL     1.434     0  04:25      0.66    0.59    0.78
  C236                 CHANNEL     1.597     0  04:22      0.69    0.76    0.87
  C237                 CHANNEL     1.595     0  04:22      0.68    0.76    0.87
  C238                 CHANNEL     1.643     0  04:21      0.71    0.79    0.87
  C239                 CHANNEL     1.635     0  04:22      0.71    0.78    0.87
  C240                 CHANNEL     1.633     0  04:23      0.71    0.76    0.87
  C241                 CHANNEL     1.633     0  04:22      0.76    0.78    0.87
  C242                 CONDUIT     1.641     0  04:22      0.52    0.57    0.69
  C243                 CHANNEL     1.639     0  04:25      0.74    0.78    0.84
  C244                 CHANNEL     1.636     0  04:31      0.94    0.27    0.50
  C245                 CONDUIT     1.637     0  04:31      0.63    0.45    0.64
  C246                 CHANNEL     1.767     0  04:30      0.60    0.57    0.73
  C247                 CHANNEL     1.763     0  04:32      0.62    0.57    0.72
  C248                 CHANNEL     1.761     0  04:33      0.65    0.57    0.69
  C249                 CHANNEL     1.762     0  04:34      2.75    0.71    0.71
  C250                 CONDUIT     1.763     0  04:35      0.75    0.65    0.58
  C251                 CONDUIT     1.763     0  04:35      0.75    0.65    0.58
  C252                 CHANNEL     1.834     0  04:30      2.04    0.74    0.68
  C253                 CHANNEL     1.831     0  04:31      0.84    0.42    0.68
  C254                 CHANNEL     1.826     0  04:33      1.55    0.42    0.72
  C255                 CHANNEL     1.824     0  04:34      1.59    0.41    0.79
  C256                 CHANNEL     1.847     0  04:35      0.48    0.42    0.84
  C257                 CHANNEL     1.848     0  04:35      1.45    0.42    0.87
  C258                 CONDUIT     1.848     0  04:36      0.62    0.68    0.73
  C259                 CHANNEL     1.850     0  04:36      0.56    0.42    0.92
  C260                 CHANNEL     1.852     0  04:37      1.39    0.42    0.96
  C261                 CHANNEL     1.868     0  04:36      1.31    0.42    0.98
  C262                 CHANNEL     1.872     0  04:36      0.50    0.43    1.00
  C263                 CHANNEL     1.876     0  04:37      0.49    0.43    0.71
  C264                 CONDUIT     1.879     0  04:37      0.59    0.98    0.77
  C265                 CHANNEL     2.058     0  04:30      0.62    0.48    0.64
  C266                 CHANNEL     2.056     0  04:31      0.65    0.40    0.69
  C267                 CHANNEL     2.055     0  04:32      0.65    0.40    0.69
  C268                 CHANNEL     2.055     0  04:33      0.65    0.40    0.69
  C269                 CHANNEL     2.063     0  04:33      0.88    0.40    0.69
  C270                 CHANNEL     2.063     0  04:33      0.66    0.40    0.69
  C271                 CHANNEL     2.064     0  04:34      0.66    0.40    0.69
  C272                 CHANNEL     2.065     0  04:34      0.66    0.40    0.69
  C273                 CHANNEL     2.125     0  04:31      0.68    0.42    0.69
  C274                 CHANNEL     2.124     0  04:32      0.69    0.42    0.68
  C275                 CHANNEL     2.122     0  04:32      0.71    0.42    0.67
  C276                 CHANNEL     2.121     0  04:32      0.73    0.42    0.66
  C277                 CHANNEL     2.119     0  04:33      0.76    0.42    0.65
  C278                 CHANNEL     2.118     0  04:33      0.79    0.41    0.63
  C279                 CHANNEL     2.116     0  04:34      0.92    0.41    0.59
  C280                 CHANNEL     2.115     0  04:36      0.76    0.72    0.81
  C281                 CHANNEL     2.173     0  04:35      0.78    0.74    0.80
  C282                 CHANNEL     2.172     0  04:35      0.79    0.74    0.80
  C283                 CHANNEL     2.186     0  04:35      0.80    0.74    0.79
  C284                 CHANNEL     2.184     0  04:35      0.82    0.74    0.77
  C285                 CHANNEL     2.183     0  04:35      0.85    0.74    0.75
  C286                 CHANNEL     2.181     0  04:36      0.95    0.53    0.74
  C287                 CHANNEL     2.179     0  04:36      0.95    0.53    0.74
  C288                 CHANNEL     2.178     0  04:36      0.95    0.53    0.74
  C289                 CHANNEL     2.176     0  04:37      0.95    0.53    0.74
  C290                 CHANNEL     2.175     0  04:37      0.95    0.53    0.74
  C291                 CHANNEL     2.175     0  04:37      0.94    0.53    0.74
  C292                 CHANNEL     2.209     0  04:37      0.96    0.54    0.74
  C293                 CHANNEL     2.208     0  04:38      0.96    0.54    0.74
  C294                 CHANNEL     2.207     0  04:38      0.96    0.54    0.74
  C295                 CHANNEL     2.206     0  04:38      0.96    0.54    0.74
  C296                 CHANNEL     2.206     0  04:38      0.96    0.54    0.74
  C297                 CHANNEL     2.205     0  04:38      0.96    0.54    0.74
  C298                 CHANNEL     2.205     0  04:39      0.97    0.53    0.73
  C299                 CHANNEL     2.204     0  04:39      0.98    0.53    0.73
  C300                 CHANNEL     2.204     0  04:39      1.00    0.53    0.72
  C301                 CHANNEL     2.204     0  04:39      1.52    0.39    0.47
  C302                 CHANNEL     0.666     0  04:15      0.57    0.10    0.43
  C303                 CHANNEL     0.505     0  04:19      0.43    0.22    0.68
  C353                 CONDUIT     0.075     0  04:15      1.87    0.03    0.11
  
  
  ***************************
  Flow Classification Summary
  ***************************
  
  -------------------------------------------------------------------------------------
                      Adjusted    ---------- Fraction of Time in Flow Class ---------- 
                       /Actual         Up    Down  Sub   Sup   Up    Down  Norm  Inlet 
  Conduit               Length    Dry  Dry   Dry   Crit  Crit  Crit  Crit  Ltd   Ctrl  
  -------------------------------------------------------------------------------------
  FID1123                 1.00   0.18  0.00  0.00  0.32  0.00  0.00  0.50  0.22  0.00
  FID1139                 1.00   0.16  0.00  0.00  0.20  0.00  0.00  0.63  0.14  0.00
  FID1148                 1.00   0.14  0.00  0.00  0.52  0.00  0.00  0.34  0.00  0.00
  FID1149                 1.00   0.15  0.00  0.00  0.46  0.06  0.00  0.33  0.39  0.00
  FID3364                 1.00   0.14  0.01  0.00  0.86  0.00  0.00  0.00  0.70  0.00
  FID3671                 1.00   0.22  0.00  0.00  0.00  0.00  0.00  0.78  0.00  0.00
  FID3672                 1.00   0.18  0.00  0.00  0.00  0.00  0.00  0.82  0.00  0.00
  FID3762                 1.00   0.01  0.16  0.00  0.71  0.12  0.00  0.00  0.67  0.00
  FID3765                 1.00   0.01  0.16  0.00  0.66  0.17  0.00  0.00  0.68  0.00
  FID4112                 1.00   0.16  0.00  0.00  0.00  0.00  0.00  0.84  0.00  0.00
  FID4186                 1.00   0.22  0.00  0.00  0.36  0.15  0.00  0.27  0.00  0.00
  FID4187                 1.00   0.23  0.00  0.00  0.00  0.00  0.00  0.77  0.00  0.00
  FID4201                 1.00   0.16  0.00  0.00  0.76  0.00  0.00  0.08  0.44  0.00
  FID4202                 1.00   0.19  0.00  0.00  0.00  0.00  0.00  0.81  0.00  0.00
  FID4203                 1.00   0.17  0.83  0.00  0.00  0.00  0.00  0.00  0.00  0.00
  FID4299                 1.00   0.23  0.00  0.00  0.00  0.00  0.00  0.77  0.00  0.00
  FID4372                 1.00   0.07  0.11  0.00  0.82  0.00  0.00  0.00  0.67  0.00
  FID4498                 1.00   0.14  0.00  0.00  0.85  0.00  0.00  0.01  0.59  0.00
  FID4806                 1.00   0.17  0.00  0.00  0.00  0.00  0.00  0.83  0.00  0.00
  FID4807                 1.00   0.24  0.00  0.00  0.00  0.00  0.00  0.76  0.00  0.00
  FID4882                 1.00   0.23  0.31  0.00  0.29  0.00  0.00  0.18  0.59  0.00
  FID4884                 1.00   0.15  0.00  0.00  0.21  0.03  0.00  0.61  0.16  0.00
  FID4914                 1.00   0.11  0.07  0.00  0.81  0.00  0.00  0.00  0.66  0.00
  FID4915                 1.00   0.24  0.00  0.00  0.76  0.00  0.00  0.01  0.49  0.00
  FID4916                 1.00   0.24  0.00  0.00  0.58  0.00  0.00  0.18  0.12  0.00
  FID4917                 1.00   0.25  0.00  0.00  0.43  0.01  0.00  0.31  0.32  0.00
  FID5307                 1.00   0.22  0.00  0.00  0.75  0.00  0.00  0.03  0.49  0.00
  FID5308                 1.00   0.23  0.00  0.00  0.00  0.00  0.00  0.77  0.00  0.00
  FID5312                 1.00   0.23  0.00  0.00  0.00  0.00  0.00  0.77  0.00  0.00
  FID5865                 1.00   0.14  0.00  0.00  0.19  0.14  0.00  0.54  0.23  0.00
  C9                      1.00   0.00  0.00  0.00  1.00  0.00  0.00  0.00  0.00  0.00
  C12                     1.00   0.00  0.00  0.00  1.00  0.00  0.00  0.00  0.00  0.00
  C13                     1.00   0.00  0.00  0.00  1.00  0.00  0.00  0.00  0.00  0.00
  C14                     1.00   0.00  0.00  0.00  1.00  0.00  0.00  0.00  0.00  0.00
  C52                     1.00   0.04  0.14  0.00  0.82  0.01  0.00  0.00  0.68  0.00
  C130                    1.00   0.22  0.00  0.00  0.54  0.00  0.00  0.24  0.00  0.00
  C131                    1.00   0.24  0.00  0.00  0.39  0.02  0.00  0.36  0.29  0.00
  C139                    1.00   0.14  0.48  0.00  0.37  0.00  0.01  0.00  0.49  0.00
  C191                    1.00   0.00  0.00  0.00  1.00  0.00  0.00  0.00  0.00  0.00
  C193                    1.00   0.00  0.00  0.00  1.00  0.00  0.00  0.00  0.00  0.00
  C194                    1.00   0.00  0.00  0.00  1.00  0.00  0.00  0.00  0.00  0.00
  C195                    1.00   0.01  0.00  0.00  0.99  0.00  0.00  0.00  0.00  0.00
  C196                    1.00   0.00  0.00  0.00  1.00  0.00  0.00  0.00  0.00  0.00
  C197                    1.00   0.01  0.00  0.00  0.99  0.00  0.00  0.00  0.00  0.00
  C198                    1.00   0.01  0.00  0.00  0.99  0.00  0.00  0.00  0.00  0.00
  C199                    1.00   0.01  0.00  0.00  0.99  0.00  0.00  0.00  0.00  0.00
  C200                    1.00   0.01  0.00  0.00  0.99  0.00  0.00  0.00  0.00  0.00
  C201                    1.00   0.01  0.00  0.00  0.99  0.00  0.00  0.00  0.00  0.00
  C202                    1.00   0.01  0.00  0.00  0.99  0.00  0.00  0.00  0.00  0.00
  C203                    1.00   0.01  0.00  0.00  0.99  0.00  0.00  0.00  0.00  0.00
  C204                    1.00   0.01  0.00  0.00  0.99  0.00  0.00  0.00  0.00  0.00
  C205                    1.00   0.02  0.00  0.00  0.98  0.00  0.00  0.00  0.00  0.00
  C206                    1.00   0.02  0.00  0.00  0.98  0.00  0.00  0.00  0.00  0.00
  C207                    1.00   0.02  0.00  0.00  0.98  0.00  0.00  0.00  0.00  0.00
  C208                    1.00   0.02  0.00  0.00  0.98  0.00  0.00  0.00  0.00  0.00
  C209                    1.00   0.02  0.00  0.00  0.98  0.00  0.00  0.00  0.00  0.00
  C210                    1.00   0.02  0.00  0.00  0.98  0.00  0.00  0.00  0.00  0.00
  C211                    1.00   0.02  0.00  0.00  0.98  0.00  0.00  0.00  0.00  0.00
  C212                    1.00   0.02  0.00  0.00  0.98  0.00  0.00  0.00  0.00  0.00
  C213                    1.00   0.02  0.00  0.00  0.98  0.00  0.00  0.00  0.00  0.00
  C214                    1.00   0.02  0.00  0.00  0.98  0.00  0.00  0.00  0.00  0.00
  C215                    1.00   0.03  0.00  0.00  0.97  0.00  0.00  0.00  0.71  0.00
  C216                    1.00   0.03  0.00  0.00  0.97  0.00  0.00  0.00  0.00  0.00
  C217                    1.00   0.03  0.00  0.00  0.97  0.00  0.00  0.00  0.00  0.00
  C218                    1.00   0.03  0.00  0.00  0.97  0.00  0.00  0.00  0.00  0.00
  C219                    1.00   0.03  0.00  0.00  0.97  0.00  0.00  0.00  0.00  0.00
  C220                    1.00   0.04  0.00  0.00  0.96  0.00  0.00  0.00  0.00  0.00
  C221                    1.00   0.04  0.00  0.00  0.96  0.00  0.00  0.00  0.00  0.00
  C222                    1.00   0.04  0.00  0.00  0.96  0.00  0.00  0.00  0.00  0.00
  C223                    1.00   0.04  0.00  0.00  0.96  0.00  0.00  0.00  0.01  0.00
  C224                    1.00   0.04  0.00  0.00  0.96  0.00  0.00  0.00  0.00  0.00
  C225                    1.00   0.04  0.00  0.00  0.96  0.00  0.00  0.00  0.00  0.00
  C226                    1.00   0.04  0.00  0.00  0.96  0.00  0.00  0.00  0.00  0.00
  C227                    1.00   0.05  0.00  0.00  0.95  0.00  0.00  0.00  0.00  0.00
  C228                    1.00   0.05  0.00  0.00  0.95  0.00  0.00  0.00  0.00  0.00
  C229                    1.00   0.05  0.00  0.00  0.95  0.00  0.00  0.00  0.00  0.00
  C230                    1.00   0.05  0.00  0.00  0.95  0.00  0.00  0.00  0.00  0.00
  C231                    1.00   0.06  0.00  0.00  0.94  0.00  0.00  0.00  0.01  0.00
  C232                    1.00   0.06  0.00  0.00  0.94  0.00  0.00  0.00  0.00  0.00
  C233                    1.00   0.06  0.00  0.00  0.94  0.00  0.00  0.00  0.03  0.00
  C234                    1.00   0.06  0.00  0.00  0.94  0.00  0.00  0.00  0.00  0.00
  C235                    1.00   0.06  0.00  0.00  0.94  0.00  0.00  0.00  0.00  0.00
  C236                    1.00   0.06  0.00  0.00  0.94  0.00  0.00  0.00  0.00  0.00
  C237                    1.00   0.07  0.00  0.00  0.93  0.00  0.00  0.00  0.00  0.00
  C238                    1.00   0.07  0.00  0.00  0.93  0.00  0.00  0.00  0.00  0.00
  C239                    1.00   0.07  0.00  0.00  0.93  0.00  0.00  0.00  0.00  0.00
  C240                    1.00   0.07  0.00  0.00  0.93  0.00  0.00  0.00  0.00  0.00
  C241                    1.00   0.07  0.00  0.00  0.93  0.00  0.00  0.00  0.00  0.00
  C242                    1.00   0.07  0.00  0.00  0.93  0.00  0.00  0.00  0.00  0.00
  C243                    1.00   0.07  0.00  0.00  0.93  0.00  0.00  0.00  0.00  0.00
  C244                    1.00   0.07  0.00  0.00  0.92  0.01  0.00  0.00  0.00  0.00
  C245                    1.00   0.08  0.00  0.00  0.92  0.00  0.00  0.00  0.00  0.00
  C246                    1.00   0.08  0.00  0.00  0.92  0.00  0.00  0.00  0.51  0.00
  C247                    1.00   0.09  0.00  0.00  0.91  0.00  0.00  0.00  0.00  0.00
  C248                    1.00   0.10  0.00  0.00  0.90  0.00  0.00  0.00  0.00  0.00
  C249                    1.00   0.11  0.00  0.00  0.89  0.00  0.00  0.00  0.00  0.00
  C250                    1.00   0.12  0.00  0.00  0.88  0.00  0.00  0.00  0.00  0.00
  C251                    1.00   0.13  0.00  0.00  0.87  0.00  0.00  0.00  0.00  0.00
  C252                    1.00   0.13  0.00  0.00  0.87  0.00  0.00  0.00  0.00  0.00
  C253                    1.00   0.13  0.00  0.00  0.87  0.00  0.00  0.00  0.00  0.00
  C254                    1.00   0.14  0.00  0.00  0.86  0.00  0.00  0.00  0.04  0.00
  C255                    1.00   0.14  0.00  0.00  0.86  0.00  0.00  0.00  0.00  0.00
  C256                    1.00   0.13  0.01  0.00  0.86  0.00  0.00  0.00  0.00  0.00
  C257                    1.00   0.13  0.00  0.00  0.87  0.00  0.00  0.00  0.00  0.00
  C258                    1.00   0.13  0.02  0.00  0.85  0.00  0.00  0.00  0.00  0.00
  C259                    1.00   0.13  0.00  0.00  0.87  0.00  0.00  0.00  0.00  0.00
  C260                    1.00   0.15  0.01  0.00  0.84  0.00  0.00  0.00  0.00  0.00
  C261                    1.00   0.15  0.00  0.00  0.85  0.00  0.00  0.00  0.00  0.00
  C262                    1.00   0.15  0.00  0.00  0.85  0.00  0.00  0.00  0.00  0.00
  C263                    1.00   0.14  0.00  0.00  0.86  0.00  0.00  0.00  0.00  0.00
  C264                    1.00   0.14  0.00  0.00  0.86  0.00  0.00  0.00  0.01  0.00
  C265                    1.00   0.14  0.00  0.00  0.86  0.00  0.00  0.00  0.00  0.00
  C266                    1.00   0.14  0.00  0.00  0.86  0.00  0.00  0.00  0.00  0.00
  C267                    1.00   0.17  0.00  0.00  0.83  0.00  0.00  0.00  0.00  0.00
  C268                    1.00   0.18  0.00  0.00  0.82  0.00  0.00  0.00  0.00  0.00
  C269                    1.00   0.18  0.00  0.00  0.82  0.00  0.00  0.00  0.00  0.00
  C270                    1.00   0.18  0.00  0.00  0.82  0.00  0.00  0.00  0.00  0.00
  C271                    1.00   0.16  0.02  0.00  0.82  0.00  0.00  0.00  0.01  0.00
  C272                    1.00   0.15  0.01  0.00  0.84  0.00  0.00  0.00  0.00  0.00
  C273                    1.00   0.15  0.00  0.00  0.85  0.00  0.00  0.00  0.00  0.00
  C274                    1.00   0.16  0.00  0.00  0.84  0.00  0.00  0.00  0.00  0.00
  C275                    1.00   0.19  0.00  0.00  0.81  0.00  0.00  0.00  0.00  0.00
  C276                    1.00   0.19  0.00  0.00  0.81  0.00  0.00  0.00  0.00  0.00
  C277                    1.00   0.19  0.00  0.00  0.81  0.00  0.00  0.00  0.00  0.00
  C278                    1.00   0.20  0.00  0.00  0.80  0.00  0.00  0.00  0.00  0.00
  C279                    1.00   0.20  0.00  0.00  0.80  0.00  0.00  0.00  0.00  0.00
  C280                    1.00   0.16  0.04  0.00  0.80  0.00  0.00  0.00  0.00  0.00
  C281                    1.00   0.16  0.00  0.00  0.84  0.00  0.00  0.00  0.01  0.00
  C282                    1.00   0.17  0.00  0.00  0.83  0.00  0.00  0.00  0.00  0.00
  C283                    1.00   0.18  0.00  0.00  0.82  0.00  0.00  0.00  0.00  0.00
  C284                    1.00   0.20  0.00  0.00  0.80  0.00  0.00  0.00  0.00  0.00
  C285                    1.00   0.21  0.00  0.00  0.79  0.00  0.00  0.00  0.00  0.00
  C286                    1.00   0.21  0.00  0.00  0.79  0.00  0.00  0.00  0.24  0.00
  C287                    1.00   0.17  0.04  0.00  0.79  0.00  0.00  0.00  0.22  0.00
  C288                    1.00   0.17  0.00  0.00  0.83  0.00  0.00  0.00  0.00  0.00
  C289                    1.00   0.21  0.00  0.00  0.79  0.00  0.00  0.00  0.00  0.00
  C290                    1.00   0.15  0.06  0.00  0.79  0.00  0.00  0.00  0.00  0.00
  C291                    1.00   0.15  0.00  0.00  0.85  0.00  0.00  0.00  0.03  0.00
  C292                    1.00   0.18  0.00  0.00  0.82  0.00  0.00  0.00  0.00  0.00
  C293                    1.00   0.18  0.00  0.00  0.82  0.00  0.00  0.00  0.00  0.00
  C294                    1.00   0.20  0.00  0.00  0.80  0.00  0.00  0.00  0.00  0.00
  C295                    1.00   0.22  0.00  0.00  0.78  0.00  0.00  0.00  0.00  0.00
  C296                    1.00   0.22  0.00  0.00  0.78  0.00  0.00  0.00  0.00  0.00
  C297                    1.00   0.22  0.00  0.00  0.78  0.00  0.00  0.00  0.00  0.00
  C298                    1.00   0.23  0.00  0.00  0.77  0.00  0.00  0.00  0.00  0.00
  C299                    1.00   0.23  0.00  0.00  0.77  0.00  0.00  0.00  0.00  0.00
  C300                    1.00   0.23  0.00  0.00  0.77  0.00  0.00  0.00  0.00  0.00
  C301                    1.00   0.23  0.00  0.00  0.77  0.00  0.00  0.00  0.00  0.00
  C302                    1.00   0.00  0.00  0.00  1.00  0.00  0.00  0.00  0.00  0.00
  C303                    1.00   0.00  0.00  0.00  1.00  0.00  0.00  0.00  0.00  0.00
  C353                    1.00   0.18  0.00  0.00  0.00  0.00  0.00  0.82  0.00  0.00
  
  
  *************************
  Conduit Surcharge Summary
  *************************
  
  ----------------------------------------------------------------------------
                                                           Hours        Hours 
                         --------- Hours Full --------   Above Full   Capacity
  Conduit                Both Ends  Upstream  Dnstream   Normal Flow   Limited
  ----------------------------------------------------------------------------
  FID1123                     0.01      0.01      0.54      0.01         0.01
  FID1139                     0.01      0.05      0.01      0.08         0.01
  FID4201                     0.01      0.07      0.01      0.17         0.01
  FID4202                     0.01      0.01      0.01      0.01         0.01
  FID4498                     0.01      0.01      1.55      0.01         0.01
  FID4882                     0.01      0.01      2.06      0.01         0.01
  FID4914                     0.01      0.01      2.07      0.01         0.01
  FID4917                     0.01      0.01      0.97      0.01         0.01
  C199                        0.01      0.01      0.01      8.53         0.01
  C200                        0.01      0.01      0.01      8.47         0.01
  C227                        0.01      0.01      0.01      0.52         0.01
  C262                        0.01      0.01      0.84      0.01         0.01
  
  
  ***************************
  Link Pollutant Load Summary
  ***************************
  
  --------------------------------------------------------------
                                 TSS            TP           TDP
  Link                            kg            kg            kg
  --------------------------------------------------------------
  FID1123                      4.212         0.001         0.013
  FID1139                     88.907         0.044         0.103
  FID1148                    169.578         0.099         0.205
  FID1149                    169.302         0.099         0.205
  FID3364                    196.222         0.121         0.255
  FID3671                      4.084         0.006         0.017
  FID3672                     61.942         0.038         0.059
  FID3762                    137.328         0.109         0.206
  FID3765                    197.066         0.146         0.292
  FID4112                     90.649         0.058         0.098
  FID4186                     10.171         0.012         0.029
  FID4187                      9.881         0.012         0.027
  FID4201                     68.858         0.045         0.066
  FID4202                     67.763         0.043         0.064
  FID4203                      0.000         0.000         0.000
  FID4299                     10.347         0.008         0.011
  FID4372                    969.175         0.269         0.349
  FID4498                     60.413         0.063         0.151
  FID4806                   1611.491         1.041         0.317
  FID4807                      0.000         0.000         0.002
  FID4882                      0.180         0.000         0.000
  FID4884                     31.270         0.011         0.058
  FID4914                     31.701         0.026         0.050
  FID4915                      2.469         0.003         0.004
  FID4916                      0.283         0.000         0.003
  FID4917                      0.120         0.000         0.003
  FID5307                     20.717         0.012         0.021
  FID5308                     14.209         0.010         0.011
  FID5312                     18.653         0.011         0.020
  FID5865                    225.412         0.863         0.195
  C9                         161.404         1.059         1.343
  C12                        160.169         1.044         1.324
  C13                        199.100         1.056         1.351
  C14                        130.393         0.696         0.894
  C52                        278.145         0.185         0.366
  C130                        26.143         0.012         0.023
  C131                        25.706         0.012         0.023
  C139                         3.522         0.001         0.003
  C191                       196.355         0.733         0.961
  C193                       197.114         0.715         0.938
  C194                       194.338         0.710         0.935
  C195                       193.896         0.707         0.932
  C196                       192.425         0.730         0.949
  C197                       391.145         0.851         1.221
  C198                       528.267         0.958         1.424
  C199                       530.735         0.957         1.423
  C200                       529.451         0.953         1.418
  C201                       536.163         0.950         1.415
  C202                       544.255         0.949         1.426
  C203                       543.199         0.946         1.422
  C204                       541.422         0.943         1.418
  C205                       708.419         1.038         1.583
  C206                       797.798         1.092         1.678
  C207                       802.208         1.092         1.679
  C208                       810.555         1.096         1.698
  C209                       801.778         1.088         1.687
  C210                       802.321         1.086         1.685
  C211                       801.003         1.084         1.682
  C212                      1036.189         1.246         1.984
  C213                      1043.480         1.249         1.987
  C214                      1043.585         1.248         1.986
  C215                      1114.616         1.290         2.073
  C216                      1065.207         1.258         2.029
  C217                      1134.066         1.299         2.091
  C218                      1409.967         1.481         2.453
  C219                      1414.583         1.481         2.454
  C220                      1416.935         1.479         2.451
  C221                      1432.864         1.483         2.494
  C222                      1549.048         1.555         2.634
  C223                      1734.971         1.658         2.807
  C224                      1756.796         1.666         2.821
  C225                      1752.509         1.656         2.829
  C226                      1751.603         1.652         2.825
  C227                      1823.540         1.681         2.888
  C228                      1778.002         1.656         2.880
  C229                      1946.843         1.774         3.142
  C230                      1954.485         1.779         3.149
  C231                      1979.699         1.788         3.166
  C232                      1965.648         1.776         3.147
  C233                      2016.238         1.792         3.201
  C234                      1972.263         1.768         3.155
  C235                      1995.681         1.782         3.173
  C236                      2961.993         2.049         3.520
  C237                      2992.640         2.055         3.530
  C238                      3226.825         2.189         3.806
  C239                      3209.074         2.180         3.792
  C240                      3196.190         2.175         3.784
  C241                      3209.818         2.184         3.795
  C242                      3237.634         2.197         3.817
  C243                      3330.578         2.231         3.878
  C244                      3257.380         2.213         3.867
  C245                      3260.534         2.212         3.868
  C246                      4990.141         3.311         4.219
  C247                      4883.372         3.262         4.225
  C248                      4924.951         3.279         4.230
  C249                      4862.875         3.246         4.210
  C250                      4869.859         3.251         4.217
  C251                      4873.100         3.252         4.216
  C252                      5063.843         3.369         4.469
  C253                      5099.496         3.384         4.475
  C254                      5120.351         3.392         4.476
  C255                      5112.489         3.385         4.469
  C256                      5151.326         3.436         4.609
  C257                      5135.191         3.429         4.613
  C258                      5136.393         3.428         4.612
  C259                      5175.053         3.444         4.618
  C260                      5136.404         3.424         4.606
  C261                      5175.879         3.438         4.663
  C262                      5219.227         3.455         4.666
  C263                      5189.582         3.436         4.653
  C264                      5307.443         3.441         4.652
  C265                      5310.044         4.278         4.839
  C266                      5325.153         4.288         4.839
  C267                      5318.190         4.283         4.835
  C268                      5331.957         4.294         4.834
  C269                      5306.911         4.270         4.841
  C270                      5323.082         4.284         4.841
  C271                      5308.148         4.269         4.838
  C272                      5305.348         4.266         4.837
  C273                      5491.888         4.380         5.042
  C274                      5488.216         4.375         5.038
  C275                      5484.790         4.371         5.035
  C276                      5483.334         4.368         5.032
  C277                      5479.782         4.364         5.030
  C278                      5479.264         4.362         5.028
  C279                      5481.075         4.364         5.026
  C280                      5475.799         4.358         5.024
  C281                      5563.293         4.400         5.126
  C282                      5566.199         4.402         5.125
  C283                      5591.574         4.414         5.147
  C284                      5592.687         4.414         5.146
  C285                      5594.772         4.415         5.145
  C286                      5597.336         4.416         5.143
  C287                      5597.391         4.415         5.141
  C288                      5595.369         4.412         5.139
  C289                      5594.767         4.410         5.137
  C290                      5595.154         4.410         5.136
  C291                      5590.742         4.404         5.134
  C292                      5636.187         4.424         5.234
  C293                      5635.009         4.421         5.232
  C294                      5636.279         4.422         5.231
  C295                      5632.532         4.417         5.229
  C296                      5633.532         4.417         5.228
  C297                      5636.087         4.420         5.227
  C298                      5636.350         4.419         5.226
  C299                      5633.583         4.415         5.224
  C300                      5635.384         4.416         5.222
  C301                      5632.653         4.412         5.221
  C302                       160.864         1.055         1.338
  C303                       197.252         0.726         0.952
  C353                        39.541         0.013         0.099
  

  Analysis begun on:  Tue Oct 10 17:42:03 2017
  Analysis ended on:  Tue Oct 10 17:42:17 2017
  Total elapsed time: 00:00:14