
  EPA STORM WATER MANAGEMENT MODEL - VERSION 5.1 (Build 5.1.010)
  --------------------------------------------------------------

  WARNING 04: minimum elevation drop used for Conduit C199
  WARNING 04: minimum elevation drop used for Conduit C200
  WARNING 02: maximum depth increased for Node FID1955
  WARNING 02: maximum depth increased for Node FID1960
  WARNING 02: maximum depth increased for Node FID1965
  WARNING 02: maximum depth increased for Node FID1968
  WARNING 02: maximum depth increased for Node FID2244
  WARNING 02: maximum depth increased for Node FID2442
  WARNING 02: maximum depth increased for Node FID2446
  WARNING 02: maximum depth increased for Node FID5504
  WARNING 02: maximum depth increased for Node FID5527
  WARNING 02: maximum depth increased for Node AFID6926
  WARNING 02: maximum depth increased for Node AFID7376
  
  *********************************************************
  NOTE: The summary statistics displayed in this report are
  based on results found at every computational time step,  
  not just on results from each reporting time step.
  *********************************************************
  
  ****************
  Analysis Options
  ****************
  Flow Units ............... CMS
  Process Models:
    Rainfall/Runoff ........ YES
    RDII ................... NO
    Snowmelt ............... NO
    Groundwater ............ NO
    Flow Routing ........... YES
    Ponding Allowed ........ YES
    Water Quality .......... YES
  Infiltration Method ...... GREEN_AMPT
  Flow Routing Method ...... DYNWAVE
  Starting Date ............ MAY-06-2016 15:00:00
  Ending Date .............. MAY-07-2016 00:00:00
  Antecedent Dry Days ...... 0.0
  Report Time Step ......... 00:01:00
  Wet Time Step ............ 00:01:00
  Dry Time Step ............ 01:00:00
  Routing Time Step ........ 5.00 sec
  Variable Time Step ....... YES
  Maximum Trials ........... 8
  Number of Threads ........ 3
  Head Tolerance ........... 0.001500 m
  
  
  **************************        Volume         Depth
  Runoff Quantity Continuity     hectare-m            mm
  **************************     ---------       -------
  Total Precipitation ......         2.583         6.709
  Evaporation Loss .........         0.000         0.000
  Infiltration Loss ........         1.306         3.392
  Surface Runoff ...........         0.990         2.571
  Final Storage ............         0.289         0.751
  Continuity Error (%) .....        -0.070
  
  
  **************************           TSS            TP           TDP
  Runoff Quality Continuity             kg            kg            kg
  **************************    ----------    ----------    ----------
  Initial Buildup ..........         0.000         0.000         0.000
  Surface Buildup ..........     15757.980         6.529        10.287
  Wet Deposition ...........         0.000         0.000         0.000
  Sweeping Removal .........         0.000         0.000         0.000
  Infiltration Loss ........         0.000         0.000         0.000
  BMP Removal ..............         0.809         0.000         0.001
  Surface Runoff ...........      8091.492         3.296         5.089
  Remaining Buildup ........      7665.678         3.232         5.197
  Continuity Error (%) .....         0.000         0.000         0.000
  
  
  **************************        Volume        Volume
  Flow Routing Continuity        hectare-m      10^6 ltr
  **************************     ---------     ---------
  Dry Weather Inflow .......         0.000         0.000
  Wet Weather Inflow .......         0.990         9.900
  Groundwater Inflow .......         0.000         0.000
  RDII Inflow ..............         0.000         0.000
  External Inflow ..........         1.384        13.843
  External Outflow .........         1.845        18.446
  Flooding Loss ............         0.000         0.000
  Evaporation Loss .........         0.000         0.000
  Exfiltration Loss ........         0.000         0.000
  Initial Stored Volume ....         0.000         0.000
  Final Stored Volume ......         0.535         5.353
  Continuity Error (%) .....        -0.233
  
  
  **************************           TSS            TP           TDP
  Quality Routing Continuity            kg            kg            kg
  **************************    ----------    ----------    ----------
  Dry Weather Inflow .......         0.000         0.000         0.000
  Wet Weather Inflow .......      8090.042         3.294         5.076
  Groundwater Inflow .......         0.000         0.000         0.000
  RDII Inflow ..............         0.000         0.000         0.000
  External Inflow ..........       137.985         1.039         1.284
  External Outflow .........      8123.261         3.982         5.899
  Flooding Loss ............         0.000         0.000         0.000
  Exfiltration Loss ........         0.000         0.000         0.000
  Mass Reacted .............         0.000         0.000         0.000
  Initial Stored Mass ......         0.000         0.000         0.000
  Final Stored Mass ........        39.375         0.351         0.496
  Continuity Error (%) .....         0.795        -0.022        -0.559
  
  
  *************************
  Highest Continuity Errors
  *************************
  Node FID2824 (1.71%)
  Node J72 (1.34%)
  Node FID2449 (1.23%)
  Node J19 (1.20%)
  Node J81 (1.19%)
  
  
  ***************************
  Time-Step Critical Elements
  ***************************
  Link C241 (92.62%)
  Link C14 (6.55%)
  
  
  ********************************
  Highest Flow Instability Indexes
  ********************************
  All links are stable.
  
  
  *************************
  Routing Time Step Summary
  *************************
  Minimum Time Step           :     0.30 sec
  Average Time Step           :     0.93 sec
  Maximum Time Step           :     5.00 sec
  Percent in Steady State     :     0.00
  Average Iterations per Step :     2.00
  Percent Not Converging      :     0.03
  
  
  ***************************
  Subcatchment Runoff Summary
  ***************************
  
  --------------------------------------------------------------------------------------------------------
                            Total      Total      Total      Total      Total       Total     Peak  Runoff
                           Precip      Runon       Evap      Infil     Runoff      Runoff   Runoff   Coeff
  Subcatchment                 mm         mm         mm         mm         mm    10^6 ltr      CMS
  --------------------------------------------------------------------------------------------------------
  S0                         5.84       0.00       0.00       5.05       0.57        0.00     0.00   0.098
  S1                         5.84       0.00       0.00       2.60       2.34        0.23     0.08   0.401
  S2                         6.35       0.00       0.00       1.96       3.27        0.56     0.19   0.516
  S3                         5.84       0.00       0.00       3.83       1.47        0.05     0.04   0.252
  S4                         5.84       0.00       0.00       2.80       2.21        0.22     0.18   0.379
  S6                         6.35       0.00       0.00       1.05       3.95        0.07     0.03   0.622
  S7                         6.35       0.00       0.00       1.48       4.04        1.58     0.45   0.637
  S8                         6.35       0.00       0.00       1.06       3.96        0.00     0.00   0.623
  S9                         6.35       0.00       0.00       1.77       3.42        0.00     0.00   0.539
  S10                        6.35       0.00       0.00       1.89       3.34        0.01     0.00   0.526
  S11                        6.35       0.00       0.00       5.00       1.01        0.00     0.00   0.160
  S12                        6.35       0.00       0.00       2.12       3.17        0.00     0.00   0.499
  S13                        6.35       0.00       0.00       2.37       2.97        0.22     0.08   0.468
  S14                        6.35       0.00       0.00       4.45       1.42        0.01     0.00   0.224
  S16                        6.35       0.00       0.00       3.55       1.82        0.10     0.03   0.287
  S17                        6.35       0.00       0.00       2.06       3.19        0.61     0.20   0.503
  S18                        6.35       0.00       0.00       1.41       3.70        0.00     0.00   0.582
  S19                        6.35       0.00       0.00       3.47       2.15        0.05     0.02   0.338
  S20                        6.35       0.00       0.00       2.22       3.09        0.02     0.01   0.486
  S21                        6.35       0.00       0.00       4.57       1.72        0.92     0.21   0.271
  S22                        6.35       0.00       0.00       1.71       3.47        0.00     0.00   0.547
  S23                        6.35       0.00       0.00       3.83       1.88        0.03     0.01   0.296
  S24                        6.35       0.00       0.00       3.62       2.04        0.04     0.01   0.321
  S25                        6.35       0.00       0.00       2.44       2.92        0.04     0.01   0.460
  S27                        6.35       0.00       0.00       2.79       2.67        0.01     0.01   0.420
  S28                        5.84       0.00       0.00       5.83       0.01        0.00     0.00   0.001
  S29                        5.84       0.00       0.00       5.80       0.03        0.00     0.00   0.006
  S30                        6.35       0.00       0.00       6.33       0.02        0.00     0.00   0.003
  S31                        6.35       0.00       0.00       6.34       0.01        0.00     0.00   0.001
  S32                        6.35       0.00       0.00       4.68       1.25        0.01     0.00   0.197
  S33                        6.35       0.00       0.00       1.53       3.60        0.04     0.02   0.567
  S34                        6.35       0.00       0.00       4.21       1.14        0.40     0.13   0.180
  S35                        6.35       0.00       0.00       3.60       2.06        0.01     0.00   0.324
  S36                        6.35       0.00       0.00       5.05       0.97        0.01     0.01   0.153
  S37                        6.35       0.00       0.00       1.85       3.36        0.02     0.01   0.529
  S39                        6.35       0.00       0.00       3.75       1.94        0.29     0.10   0.305
  S40                        6.35       0.00       0.00       4.42       1.44        0.03     0.01   0.227
  S41                        6.35       0.00       0.00       2.20       3.10        0.42     0.15   0.488
  S42                        6.35       0.00       0.00       2.59       2.80        0.28     0.10   0.441
  S43                        6.35       0.00       0.00       4.74       1.20        0.02     0.01   0.189
  S44                        6.35       0.00       0.00       2.66       2.75        0.62     0.21   0.433
  S45                        8.13       0.00       0.00       4.54       2.94        0.00     0.00   0.361
  S47                        8.13       0.00       0.00       3.47       3.79        0.16     0.14   0.466
  S48                        8.13       0.00       0.00       4.12       3.29        0.01     0.01   0.405
  S49                        8.13       0.00       0.00       3.62       3.63        0.68     0.50   0.446
  S51                        8.13       0.00       0.00       6.97       0.95        0.01     0.01   0.117
  S52                        8.13       0.00       0.00       3.94       3.40        0.23     0.20   0.418
  S53                        8.13       0.00       0.00       3.79       3.49        0.49     0.38   0.430
  S54                        8.13       0.00       0.00       4.85       2.63        0.25     0.07   0.324
  S55                        8.13       0.00       0.00       3.95       3.34        0.55     0.16   0.411
  S56                        8.13       0.00       0.00       5.88       1.81        0.00     0.00   0.223
  S57                        8.13       0.00       0.00       3.42       3.78        0.04     0.01   0.465
  S58                        8.13       0.00       0.00       4.29       3.08        0.13     0.04   0.379
  S59                        8.13       0.00       0.00       6.99       0.91        0.02     0.01   0.112
  S60                        8.13       0.00       0.00       5.78       1.89        0.05     0.01   0.232
  S61                        8.13       0.00       0.00       7.15       0.79        0.01     0.00   0.097
  S62                        8.13       0.00       0.00       6.66       1.19        0.03     0.03   0.147
  S63                        6.35       0.00       0.00       5.33       0.76        0.01     0.01   0.120
  S64                        6.35       0.00       0.00       2.86       2.62        0.04     0.02   0.412
  S65                        6.35       0.00       0.00       4.22       1.59        0.27     0.09   0.250
  
  
  ****************************
  Subcatchment Washoff Summary
  ****************************
  
  --------------------------------------------------------------
                                 TSS            TP           TDP
  Subcatchment                    kg            kg            kg
  --------------------------------------------------------------
  S0                           0.319         0.000         0.000
  S1                         180.947         0.011         0.135
  S2                         330.281         0.077         0.240
  S3                          36.652         0.010         0.040
  S4                         187.899         0.032         0.142
  S6                          23.127         0.001         0.021
  S7                         240.738         0.940         0.385
  S8                           0.821         0.000         0.000
  S9                           0.941         0.000         0.001
  S10                          9.356         0.003         0.006
  S11                          0.921         0.000         0.000
  S12                          0.540         0.000         0.000
  S13                         96.435         0.009         0.088
  S14                         13.885         0.007         0.009
  S16                         59.100         0.084         0.056
  S17                        382.184         0.094         0.272
  S18                          0.953         0.000         0.001
  S19                         55.139         0.022         0.033
  S20                         16.214         0.007         0.010
  S21                       1626.004         0.493         0.511
  S22                          6.021         0.002         0.003
  S23                         25.325         0.018         0.019
  S24                         37.324         0.009         0.029
  S25                         23.373         0.012         0.016
  S27                         16.546         0.008         0.010
  S28                          0.000         0.000         0.000
  S29                          0.000         0.000         0.000
  S30                          0.000         0.000         0.000
  S31                          0.000         0.000         0.000
  S32                          7.880         0.003         0.005
  S33                         34.062         0.011         0.021
  S34                        940.909         0.260         0.560
  S35                         10.117         0.004         0.006
  S36                         21.325         0.005         0.013
  S37                         15.151         0.007         0.009
  S39                        294.755         0.108         0.208
  S40                         40.250         0.019         0.028
  S41                        287.178         0.074         0.204
  S42                        252.296         0.063         0.160
  S43                         33.841         0.012         0.023
  S44                        531.305         0.146         0.346
  S45                          1.382         0.001         0.001
  S47                         93.314         0.036         0.062
  S48                          9.124         0.004         0.005
  S49                        406.300         0.132         0.267
  S51                         16.210         0.010         0.011
  S52                        149.365         0.045         0.098
  S53                        287.563         0.070         0.199
  S54                        221.999         0.092         0.144
  S55                        369.553         0.123         0.236
  S56                          0.083         0.000         0.000
  S57                         18.287         0.006         0.010
  S58                        100.053         0.028         0.062
  S59                         56.852         0.013         0.032
  S60                         40.282         0.027         0.030
  S61                         19.632         0.003         0.010
  S62                         35.462         0.025         0.027
  S63                         19.703         0.002         0.013
  S64                         19.791         0.014         0.015
  S65                        386.426         0.113         0.257
  --------------------------------------------------------------
  System                    8091.492         3.296         5.089
  
  
  ******************
  Node Depth Summary
  ******************
  
  ---------------------------------------------------------------------------------
                                 Average  Maximum  Maximum  Time of Max    Reported
                                   Depth    Depth      HGL   Occurrence   Max Depth
  Node                 Type       Meters   Meters   Meters  days hr:min      Meters
  ---------------------------------------------------------------------------------
  FID1936              JUNCTION     0.15     0.40  1376.70     0  04:05        0.12
  FID1955              JUNCTION     0.16     0.33  1376.25     0  04:15        0.10
  FID1960              JUNCTION     0.15     0.28  1376.14     0  04:15        0.08
  FID1965              JUNCTION     0.15     0.26  1376.56     0  04:15        0.08
  FID1968              JUNCTION     0.13     0.21  1376.61     0  04:14        0.06
  FID2239              JUNCTION     0.15     0.29  1374.80     0  04:05        0.09
  FID2241              JUNCTION     0.13     0.20  1373.33     0  04:05        0.06
  FID2242              JUNCTION     0.13     0.22  1374.26     0  04:05        0.07
  FID2244              JUNCTION     0.13     0.19  1374.55     0  03:30        0.06
  FID2440              JUNCTION     0.38     0.62  1374.87     0  04:10        0.19
  FID2442              JUNCTION     0.00     0.00  1375.27     0  00:00        0.00
  FID2446              JUNCTION     0.16     0.57  1376.37     0  04:05        0.17
  FID2447              JUNCTION     0.15     0.47  1376.17     0  04:05        0.14
  FID2455              JUNCTION     0.29     0.57  1374.56     0  04:20        0.17
  FID2711              JUNCTION     0.13     0.25  1370.43     0  04:05        0.07
  FID2719              JUNCTION     0.17     0.91  1371.01     0  04:04        0.23
  FID2720              JUNCTION     0.15     0.39  1370.59     0  04:05        0.12
  FID2824              JUNCTION     0.12     0.18  1371.46     0  03:55        0.06
  FID2827              JUNCTION     0.13     0.23  1371.53     0  03:55        0.07
  FID2828              JUNCTION     0.13     0.23  1371.55     0  04:10        0.07
  FID2832              JUNCTION     0.16     0.31  1370.91     0  04:10        0.09
  FID2833              JUNCTION     0.21     0.48  1371.10     0  04:10        0.15
  FID2839              JUNCTION     0.18     0.35  1371.55     0  04:10        0.11
  FID2873              JUNCTION     0.16     0.29  1370.99     0  03:55        0.09
  FID2964              JUNCTION     0.17     0.32  1371.10     0  04:35        0.10
  FID2965              JUNCTION     0.42     0.84  1371.10     0  04:35        0.25
  FID4584              JUNCTION     0.13     0.30  1371.64     0  04:10        0.09
  FID5068              JUNCTION     0.13     0.20  1375.58     0  03:30        0.06
  FID5072              JUNCTION     0.47     0.80  1374.09     0  04:20        0.24
  FID5140              JUNCTION     0.15     0.26  1373.48     0  04:05        0.08
  FID5435              JUNCTION     0.16     0.26  1373.01     0  04:05        0.08
  FID5437              JUNCTION     0.12     0.18  1373.13     0  03:30        0.05
  FID5503              JUNCTION     0.12     0.16  1371.49     0  03:51        0.05
  FID5504              JUNCTION     0.15     0.25  1371.61     0  04:10        0.08
  FID5527              JUNCTION     0.14     0.21  1372.71     0  04:10        0.07
  FID5568              JUNCTION     0.45     0.80  1373.20     0  04:29        0.24
  FID5784              JUNCTION     0.46     0.81  1372.81     0  04:31        0.25
  FID5785              JUNCTION     0.14     0.24  1374.67     0  04:05        0.07
  AFID6926             JUNCTION     0.15     0.25  1370.05     0  04:15        0.08
  AFID7360             JUNCTION     0.47     0.92  1371.05     0  04:35        0.28
  AFID7363             JUNCTION     0.45     0.90  1371.07     0  04:35        0.27
  AFID7376             JUNCTION     0.18     0.41  1371.64     0  04:10        0.12
  AFID7377             JUNCTION     0.39     0.72  1371.39     0  04:33        0.22
  AFID7705             JUNCTION     0.48     0.59  1375.56     0  04:15        0.18
  AFID7706             JUNCTION     0.54     0.65  1375.56     0  04:15        0.20
  AFID7792             JUNCTION     0.17     0.39  1375.19     0  04:05        0.12
  AFID8223             JUNCTION     0.46     0.81  1372.81     0  04:30        0.25
  J1                   JUNCTION     0.70     0.73  1375.72     0  04:15        0.22
  FID4901              JUNCTION     0.43     0.52  1375.59     0  04:15        0.16
  J9                   JUNCTION     0.59     0.62  1375.71     0  04:15        0.19
  J11                  JUNCTION     0.44     0.47  1375.68     0  04:16        0.14
  J12                  JUNCTION     0.43     0.50  1375.62     0  04:15        0.15
  J13                  JUNCTION     0.43     0.52  1375.60     0  04:15        0.16
  FID4902              JUNCTION     0.45     0.54  1375.59     0  04:15        0.17
  J14                  JUNCTION     0.36     0.52  1375.44     0  04:05        0.16
  J15                  JUNCTION     0.34     0.55  1375.21     0  04:06        0.17
  J16                  JUNCTION     0.35     0.55  1375.19     0  04:06        0.17
  FID2449              JUNCTION     0.38     0.63  1374.94     0  04:10        0.19
  J17                  JUNCTION     0.28     0.57  1374.54     0  04:20        0.17
  J19                  JUNCTION     0.41     0.75  1374.29     0  04:22        0.23
  FID5069              JUNCTION     0.49     0.82  1374.08     0  04:21        0.25
  FID5139              JUNCTION     0.46     0.81  1373.17     0  04:29        0.25
  J24                  JUNCTION     0.46     0.81  1373.18     0  04:29        0.25
  FID4984              JUNCTION     0.48     0.83  1372.79     0  04:31        0.25
  FID2669              JUNCTION     0.35     0.71  1369.15     0  04:38        0.22
  FID2712              JUNCTION     0.37     0.76  1369.95     0  04:35        0.23
  FID2718              JUNCTION     0.38     0.77  1370.01     0  04:35        0.23
  FID2838              JUNCTION     0.55     1.00  1370.94     0  04:32        0.30
  FID2825              JUNCTION     0.60     1.07  1370.98     0  04:34        0.33
  FID2823              JUNCTION     0.64     1.12  1371.00     0  04:34        0.34
  FID5505              JUNCTION     0.54     1.00  1371.02     0  04:34        0.30
  FID5436              JUNCTION     0.49     0.83  1372.16     0  04:31        0.25
  FID5438              JUNCTION     0.42     0.77  1372.19     0  04:31        0.23
  J49                  JUNCTION     0.47     0.56  1375.58     0  04:15        0.17
  J50                  JUNCTION     0.51     0.61  1375.57     0  04:15        0.19
  J51                  JUNCTION     0.56     0.67  1375.56     0  04:15        0.20
  J52                  JUNCTION     0.57     0.68  1375.56     0  04:15        0.21
  J53                  JUNCTION     0.36     0.52  1375.44     0  04:05        0.16
  J54                  JUNCTION     0.37     0.51  1375.46     0  04:05        0.15
  J55                  JUNCTION     0.41     0.52  1375.55     0  04:15        0.16
  J56                  JUNCTION     0.39     0.50  1375.52     0  04:09        0.15
  J57                  JUNCTION     0.37     0.48  1375.50     0  04:07        0.15
  J58                  JUNCTION     0.37     0.50  1375.47     0  04:06        0.15
  FID1935              JUNCTION     0.37     0.53  1375.42     0  04:05        0.16
  J59                  JUNCTION     0.37     0.53  1375.40     0  04:05        0.16
  J60                  JUNCTION     0.36     0.52  1375.35     0  04:06        0.16
  J61                  JUNCTION     0.34     0.52  1375.29     0  04:07        0.16
  J62                  JUNCTION     0.33     0.52  1375.27     0  04:07        0.16
  J63                  JUNCTION     0.35     0.55  1375.23     0  04:06        0.17
  J64                  JUNCTION     0.33     0.54  1375.16     0  04:07        0.17
  J65                  JUNCTION     0.30     0.52  1375.10     0  04:08        0.16
  J66                  JUNCTION     0.38     0.62  1374.83     0  04:10        0.19
  J67                  JUNCTION     0.38     0.61  1374.76     0  04:11        0.19
  J68                  JUNCTION     0.36     0.59  1374.66     0  04:12        0.18
  J69                  JUNCTION     0.49     0.79  1374.52     0  04:20        0.24
  J70                  JUNCTION     0.47     0.78  1374.43     0  04:21        0.24
  J71                  JUNCTION     0.45     0.76  1374.36     0  04:21        0.23
  J72                  JUNCTION     0.48     0.80  1374.15     0  04:22        0.24
  J73                  JUNCTION     0.49     0.82  1374.05     0  04:21        0.25
  J74                  JUNCTION     0.50     0.82  1373.80     0  04:24        0.25
  J75                  JUNCTION     0.50     0.82  1373.67     0  04:25        0.25
  J76                  JUNCTION     0.46     0.81  1373.15     0  04:29        0.25
  J77                  JUNCTION     0.46     0.82  1373.02     0  04:30        0.25
  J78                  JUNCTION     0.46     0.81  1372.89     0  04:30        0.25
  J79                  JUNCTION     0.46     0.81  1372.82     0  04:30        0.25
  J80                  JUNCTION     0.40     0.74  1372.22     0  04:32        0.22
  J81                  JUNCTION     0.48     0.81  1371.80     0  04:34        0.25
  J82                  JUNCTION     0.47     0.80  1371.73     0  04:35        0.24
  J83                  JUNCTION     0.40     0.75  1371.55     0  04:35        0.23
  J84                  JUNCTION     0.36     0.68  1371.32     0  04:34        0.21
  J85                  JUNCTION     0.37     0.71  1371.23     0  04:35        0.22
  J86                  JUNCTION     0.39     0.77  1371.14     0  04:35        0.23
  J87                  JUNCTION     0.44     0.88  1371.07     0  04:35        0.27
  J88                  JUNCTION     0.52     0.98  1371.03     0  04:34        0.30
  J89                  JUNCTION     0.56     1.03  1371.02     0  04:34        0.31
  J90                  JUNCTION     0.52     0.97  1370.92     0  04:32        0.30
  J91                  JUNCTION     0.52     0.97  1370.86     0  04:33        0.30
  J92                  JUNCTION     0.52     0.97  1370.81     0  04:33        0.30
  J93                  JUNCTION     0.52     0.97  1370.69     0  04:33        0.30
  J94                  JUNCTION     0.52     0.97  1370.63     0  04:32        0.30
  J95                  JUNCTION     0.52     0.97  1370.61     0  04:32        0.30
  J96                  JUNCTION     0.51     0.96  1370.52     0  04:32        0.29
  J97                  JUNCTION     0.50     0.95  1370.45     0  04:33        0.29
  J98                  JUNCTION     0.50     0.94  1370.38     0  04:34        0.29
  J99                  JUNCTION     0.48     0.92  1370.32     0  04:34        0.28
  J100                 JUNCTION     0.47     0.90  1370.26     0  04:35        0.27
  J101                 JUNCTION     0.45     0.87  1370.19     0  04:35        0.26
  J102                 JUNCTION     0.38     0.77  1370.04     0  04:35        0.24
  J103                 JUNCTION     0.38     0.76  1369.99     0  04:35        0.23
  J104                 JUNCTION     0.37     0.75  1369.91     0  04:35        0.23
  J105                 JUNCTION     0.36     0.73  1369.86     0  04:36        0.22
  J106                 JUNCTION     0.35     0.70  1369.78     0  04:36        0.21
  J107                 JUNCTION     0.35     0.70  1369.64     0  04:36        0.21
  J108                 JUNCTION     0.35     0.70  1369.50     0  04:37        0.21
  J109                 JUNCTION     0.35     0.70  1369.39     0  04:37        0.21
  J110                 JUNCTION     0.35     0.70  1369.29     0  04:37        0.21
  J111                 JUNCTION     0.35     0.71  1369.19     0  04:37        0.22
  J112                 JUNCTION     0.35     0.71  1369.03     0  04:38        0.22
  J113                 JUNCTION     0.35     0.71  1368.93     0  04:38        0.22
  J114                 JUNCTION     0.35     0.71  1368.82     0  04:38        0.22
  J115                 JUNCTION     0.35     0.71  1368.76     0  04:39        0.22
  J116                 JUNCTION     0.35     0.71  1368.69     0  04:39        0.22
  J117                 JUNCTION     0.35     0.70  1368.58     0  04:39        0.21
  J118                 JUNCTION     0.35     0.70  1368.47     0  04:39        0.21
  J119                 JUNCTION     0.35     0.69  1368.40     0  04:39        0.21
  J120                 JUNCTION     0.37     0.68  1368.28     0  04:40        0.21
  FID2451              JUNCTION     0.38     0.61  1374.90     0  04:10        0.19
  J121                 JUNCTION     0.38     0.72  1371.46     0  04:34        0.22
  J122                 JUNCTION     0.38     0.72  1371.43     0  04:34        0.22
  FID3706              JUNCTION     0.52     0.97  1370.71     0  04:33        0.30
  FID2831              JUNCTION     0.52     0.97  1370.59     0  04:32        0.30
  FID2689              OUTFALL      0.25     0.50  1368.00     0  04:40        0.15
  
  
  *******************
  Node Inflow Summary
  *******************
  
  -------------------------------------------------------------------------------------------------
                                  Maximum  Maximum                  Lateral       Total        Flow
                                  Lateral    Total  Time of Max      Inflow      Inflow     Balance
                                   Inflow   Inflow   Occurrence      Volume      Volume       Error
  Node                 Type           CMS      CMS  days hr:min    10^6 ltr    10^6 ltr     Percent
  -------------------------------------------------------------------------------------------------
  FID1936              JUNCTION     0.198    0.198     0  04:05       0.228       0.228       0.071
  FID1955              JUNCTION     0.163    0.163     0  04:15       0.545       0.545       0.031
  FID1960              JUNCTION     0.075    0.075     0  04:15       0.248       0.248       0.068
  FID1965              JUNCTION     0.038    0.038     0  04:15       0.125       0.125       0.139
  FID1968              JUNCTION     0.011    0.011     0  04:15      0.0377      0.0377       0.464
  FID2239              JUNCTION     0.014    0.014     0  03:30      0.0391      0.0391       1.316
  FID2241              JUNCTION     0.000    0.013     0  04:05           0      0.0367       0.470
  FID2242              JUNCTION     0.013    0.013     0  04:05      0.0369      0.0369       0.491
  FID2244              JUNCTION     0.007    0.007     0  03:30      0.0143      0.0143       1.233
  FID2440              JUNCTION     0.000    1.283     0  04:08           0        15.3       0.227
  FID2442              JUNCTION     0.000    0.000     0  00:00           0           0       0.000 ltr
  FID2446              JUNCTION     0.142    0.142     0  04:05       0.161       0.161       1.154
  FID2447              JUNCTION     0.000    0.139     0  04:05           0       0.159      -0.332
  FID2455              JUNCTION     0.097    1.326     0  04:11       0.285        15.4       0.209
  FID2711              JUNCTION     0.000    0.043     0  04:05           0      0.0473       0.328
  FID2719              JUNCTION     0.181    0.181     0  04:05        0.22        0.22       0.200
  FID2720              JUNCTION     0.044    0.044     0  04:05      0.0475      0.0475       0.456
  FID2824              JUNCTION     0.000    0.004     0  04:10     0.00065     0.00972       1.740
  FID2827              JUNCTION     0.000    0.003     0  04:10    0.000737     0.00918       1.135
  FID2828              JUNCTION     0.003    0.003     0  04:10     0.00869     0.00869       3.000
  FID2832              JUNCTION     0.000    0.190     0  04:10           0       0.564       0.056
  FID2833              JUNCTION     0.190    0.190     0  04:10       0.564       0.564       0.043
  FID2839              JUNCTION     0.446    0.446     0  04:10        1.58        1.58       0.025
  FID2873              JUNCTION     0.025    0.025     0  04:10      0.0741      0.0741       0.909
  FID2964              JUNCTION     0.028    0.028     0  04:10       0.101       0.101       0.165
  FID2965              JUNCTION     0.000    1.741     0  04:35           0        16.6       0.275
  FID4584              JUNCTION     0.000    0.002     0  03:32           0    0.000865      19.204
  FID5068              JUNCTION     0.008    0.008     0  03:30      0.0176      0.0176       1.000
  FID5072              JUNCTION     0.100    1.454     0  04:20       0.287        15.5       0.198
  FID5140              JUNCTION     0.131    0.131     0  04:05       0.403       0.403       0.027
  FID5435              JUNCTION     0.213    0.213     0  04:05       0.921       0.921       0.020
  FID5437              JUNCTION     0.002    0.002     0  03:30     0.00479     0.00479       3.770
  FID5503              JUNCTION     0.000    0.000     0  03:27    0.000696    0.000696      33.200
  FID5504              JUNCTION     0.076    0.076     0  04:10       0.224       0.224       0.123
  FID5527              JUNCTION     0.016    0.016     0  04:10      0.0463      0.0463       0.377
  FID5568              JUNCTION     0.004    1.430     0  04:26     0.00686        15.2       0.699
  FID5784              JUNCTION     0.000    1.552     0  04:30           0        15.7       0.098
  FID5785              JUNCTION     0.000    0.014     0  04:05           0      0.0386       0.386
  AFID6926             JUNCTION     0.075    0.075     0  04:15        0.23        0.23       0.076
  AFID7360             JUNCTION     0.000    1.744     0  04:37     0.00042        16.5       0.201
  AFID7363             JUNCTION     0.000    1.744     0  04:37           0        16.5       0.099
  AFID7376             JUNCTION     0.204    0.204     0  04:10       0.614       0.614      -0.002
  AFID7377             JUNCTION     0.000    1.737     0  04:30           0        16.6       0.108
  AFID7705             JUNCTION     0.000    0.728     0  04:15           0        14.1       0.267
  AFID7706             JUNCTION     0.000    0.654     0  04:16           0        13.9       0.259
  AFID7792             JUNCTION     0.209    0.209     0  04:05       0.621       0.621       0.024
  AFID8223             JUNCTION     0.000    1.548     0  04:30           0        15.7       0.022
  J1                   JUNCTION     0.667    0.667     0  04:15          21          21       0.151
  FID4901              JUNCTION     0.000    0.486     0  04:19           0        13.8       0.234
  J9                   JUNCTION     0.000    0.667     0  04:15           0          21       0.303
  J11                  JUNCTION     0.000    0.666     0  04:15           0        20.9       0.523
  J12                  JUNCTION     0.007    0.672     0  04:20      0.0231        20.8       0.571
  J13                  JUNCTION    -0.220    0.680     0  04:20       -7.13        20.7      -0.191
  FID4902              JUNCTION     0.000    0.495     0  04:15           0        13.8       0.367
  J14                  JUNCTION     0.381    0.909     0  04:05       0.487        14.3       0.192
  J15                  JUNCTION     0.496    1.266     0  04:05       0.679        14.9       0.157
  J16                  JUNCTION     0.008    1.250     0  04:05     0.00949        14.9       0.158
  FID2449              JUNCTION     0.001    1.147     0  04:08     0.00137        14.8       1.248
  J17                  JUNCTION     0.145    1.409     0  04:11       0.422        15.8       0.100
  J19                  JUNCTION     0.019    1.393     0  04:21      0.0367        15.6       1.216
  FID5069              JUNCTION     0.000    1.456     0  04:20           0        15.5       0.177
  FID5139              JUNCTION     0.000    1.509     0  04:23           0        15.6       0.052
  J24                  JUNCTION     0.018    1.433     0  04:25      0.0417        15.2       0.079
  FID4984              JUNCTION     0.000    1.558     0  04:30           0        15.7       0.812
  FID2669              JUNCTION     0.000    2.098     0  04:37           0        18.6       0.063
  FID2712              JUNCTION     0.000    2.076     0  04:35           0        18.5       0.079
  FID2718              JUNCTION     0.000    2.064     0  04:35           0        18.5       0.056
  FID2838              JUNCTION     0.000    1.948     0  04:30           0          18       0.168
  FID2825              JUNCTION     0.000    1.771     0  04:38           0        16.5       0.304
  FID2823              JUNCTION     0.000    1.766     0  04:38           0        16.6       0.484
  FID5505              JUNCTION     0.000    1.762     0  04:37           0        16.6       0.127
  FID5436              JUNCTION     0.000    1.685     0  04:30           0        16.4       0.794
  FID5438              JUNCTION     0.000    1.558     0  04:32           0        15.5       0.147
  J49                  JUNCTION     0.000    0.499     0  04:19           0        13.7       0.587
  J50                  JUNCTION     0.000    0.505     0  04:19    0.000279        13.6       1.029
  J51                  JUNCTION     0.000    0.516     0  04:18           0        13.5       0.829
  J52                  JUNCTION     0.000    0.529     0  04:33           0        13.4       0.246
  J53                  JUNCTION     0.000    0.744     0  04:15           0        13.8       0.209
  J54                  JUNCTION     0.000    0.739     0  04:15           0        13.9       0.309
  J55                  JUNCTION     0.000    0.728     0  04:15           0        14.1       0.296
  J56                  JUNCTION     0.000    0.729     0  04:15           0          14       0.318
  J57                  JUNCTION     0.000    0.730     0  04:15           0          14       0.397
  J58                  JUNCTION     0.002    0.735     0  04:15     0.00679        13.9       0.424
  FID1935              JUNCTION     0.000    1.088     0  04:05           0        14.5       0.246
  J59                  JUNCTION     0.000    1.065     0  04:05           0        14.5       0.341
  J60                  JUNCTION     0.008    1.028     0  04:05     0.00955        14.4       0.535
  J61                  JUNCTION     0.000    0.958     0  04:06           0        14.3       0.359
  J62                  JUNCTION     0.000    0.947     0  04:07           0        14.3       0.161
  J63                  JUNCTION     0.000    0.951     0  04:07           0        14.3       0.164
  J64                  JUNCTION     0.000    1.232     0  04:05           0        14.9       0.163
  J65                  JUNCTION     0.027    1.232     0  04:05      0.0304        14.9       0.948
  J66                  JUNCTION     0.000    1.279     0  04:09           0        15.3       0.286
  J67                  JUNCTION     0.000    1.274     0  04:10           0        15.2       0.427
  J68                  JUNCTION     0.011    1.272     0  04:10      0.0232        15.2       0.463
  J69                  JUNCTION     0.000    1.406     0  04:11           0        15.8       0.448
  J70                  JUNCTION     0.006    1.402     0  04:20      0.0117        15.7       0.574
  J71                  JUNCTION     0.000    1.394     0  04:21           0        15.6       0.414
  J72                  JUNCTION     0.011    1.389     0  04:22      0.0316        15.5       1.355
  J73                  JUNCTION     0.000    1.454     0  04:20           0        15.5       0.392
  J74                  JUNCTION     0.000    1.446     0  04:20           0        15.4       0.578
  J75                  JUNCTION     0.006    1.437     0  04:22      0.0122        15.4       0.892
  J76                  JUNCTION     0.000    1.508     0  04:24           0        15.5       0.217
  J77                  JUNCTION     0.090    1.554     0  04:20       0.268        15.8       0.398
  J78                  JUNCTION     0.000    1.546     0  04:30           0        15.7       0.299
  J79                  JUNCTION     0.000    1.546     0  04:30           0        15.7       0.109
  J80                  JUNCTION     0.014    1.559     0  04:30      0.0309        15.6       0.665
  J81                  JUNCTION     0.002    1.684     0  04:30     0.00539        16.4       1.206
  J82                  JUNCTION     0.000    1.673     0  04:33           0        16.2       0.477
  J83                  JUNCTION     0.000    1.672     0  04:35           0        16.1       0.354
  J84                  JUNCTION     0.000    1.736     0  04:31           0        16.6       0.188
  J85                  JUNCTION     0.000    1.733     0  04:32           0        16.6       0.350
  J86                  JUNCTION     0.000    1.730     0  04:34           0        16.5       0.360
  J87                  JUNCTION     0.003    1.742     0  04:36     0.00832        16.5       0.153
  J88                  JUNCTION     0.000    1.746     0  04:37           0        16.4       0.232
  J89                  JUNCTION     0.000    1.763     0  04:37           0        16.6       0.351
  J90                  JUNCTION     0.000    1.946     0  04:30           0          18       0.118
  J91                  JUNCTION     0.000    1.944     0  04:32           0          18       0.165
  J92                  JUNCTION     0.000    1.944     0  04:33    3.41e-06        17.9       0.205
  J93                  JUNCTION     0.000    1.951     0  04:33           0        17.9       0.109
  J94                  JUNCTION     0.000    1.952     0  04:34    6.18e-06        17.9       0.125
  J95                  JUNCTION     0.000    1.953     0  04:34           0        17.9       0.048
  J96                  JUNCTION     0.000    2.015     0  04:31           0        18.4       0.176
  J97                  JUNCTION     0.000    2.013     0  04:32           0        18.4       0.150
  J98                  JUNCTION     0.000    2.011     0  04:32           0        18.4       0.132
  J99                  JUNCTION     0.000    2.010     0  04:32           0        18.3       0.113
  J100                 JUNCTION     0.000    2.009     0  04:33           0        18.3       0.095
  J101                 JUNCTION     0.000    2.007     0  04:33           0        18.3       0.110
  J102                 JUNCTION     0.000    2.005     0  04:34           0        18.3       0.085
  J103                 JUNCTION     0.000    2.062     0  04:35           0        18.5       0.064
  J104                 JUNCTION     0.000    2.074     0  04:35           0        18.5       0.084
  J105                 JUNCTION     0.000    2.073     0  04:35           0        18.5       0.104
  J106                 JUNCTION     0.000    2.071     0  04:35           0        18.5       0.117
  J107                 JUNCTION     0.000    2.069     0  04:36           0        18.4       0.119
  J108                 JUNCTION     0.000    2.068     0  04:36    2.17e-05        18.4       0.108
  J109                 JUNCTION     0.000    2.066     0  04:36           0        18.4       0.091
  J110                 JUNCTION     0.000    2.065     0  04:37           0        18.4       0.088
  J111                 JUNCTION     0.000    2.064     0  04:37    0.000188        18.4       0.065
  J112                 JUNCTION     0.000    2.098     0  04:37           0        18.6       0.091
  J113                 JUNCTION     0.000    2.097     0  04:38           0        18.6       0.089
  J114                 JUNCTION     0.000    2.096     0  04:38           0        18.5       0.076
  J115                 JUNCTION     0.000    2.096     0  04:38           0        18.5       0.056
  J116                 JUNCTION     0.000    2.095     0  04:38    6.26e-06        18.5       0.073
  J117                 JUNCTION     0.000    2.095     0  04:39           0        18.5       0.090
  J118                 JUNCTION     0.000    2.094     0  04:39           0        18.5       0.078
  J119                 JUNCTION     0.000    2.094     0  04:39           0        18.5       0.076
  J120                 JUNCTION     0.000    2.093     0  04:39           0        18.5       0.094
  FID2451              JUNCTION     0.000    1.134     0  04:09           0        14.7       0.227
  J121                 JUNCTION     0.006    1.673     0  04:36      0.0163          16       0.107
  J122                 JUNCTION     0.000    1.674     0  04:36     0.00074          16       0.095
  FID3706              JUNCTION     0.000    1.951     0  04:33           0          18       0.163
  FID2831              JUNCTION     0.000    2.016     0  04:31           0        18.5       0.104
  FID2689              OUTFALL      0.000    2.093     0  04:40           0        18.4       0.000
  
  
  **********************
  Node Surcharge Summary
  **********************
  
  Surcharging occurs when water rises above the top of the highest conduit.
  ---------------------------------------------------------------------
                                               Max. Height   Min. Depth
                                   Hours       Above Crown    Below Rim
  Node                 Type      Surcharged         Meters       Meters
  ---------------------------------------------------------------------
  FID2446              JUNCTION        0.08          0.034        0.000
  FID2719              JUNCTION        0.05          0.381        0.000
  
  
  *********************
  Node Flooding Summary
  *********************
  
  Flooding refers to all water that overflows a node, whether it ponds or not.
  --------------------------------------------------------------------------
                                                             Total   Maximum
                                 Maximum   Time of Max       Flood    Ponded
                        Hours       Rate    Occurrence      Volume     Depth
  Node                 Flooded       CMS   days hr:min    10^6 ltr    Meters
  --------------------------------------------------------------------------
  FID2446                 0.08     0.005      0  03:34       0.001     0.034
  
  
  ***********************
  Outfall Loading Summary
  ***********************
  
  -----------------------------------------------------------------------------------------------------
                         Flow       Avg       Max       Total         Total         Total         Total
                         Freq      Flow      Flow      Volume           TSS            TP           TDP
  Outfall Node           Pcnt       CMS       CMS    10^6 ltr            kg            kg            kg
  -----------------------------------------------------------------------------------------------------
  FID2689               76.93     0.982     2.093      18.445      8043.659         3.623         5.456
  -----------------------------------------------------------------------------------------------------
  System                76.93     0.982     2.093      18.445      8043.659         3.623         5.456
  
  
  ********************
  Link Flow Summary
  ********************
  
  -----------------------------------------------------------------------------
                                 Maximum  Time of Max   Maximum    Max/    Max/
                                  |Flow|   Occurrence   |Veloc|    Full    Full
  Link                 Type          CMS  days hr:min     m/sec    Flow   Depth
  -----------------------------------------------------------------------------
  FID1123              CONDUIT     0.025     0  04:10      0.83    0.42    0.70
  FID1139              CONDUIT     0.181     0  04:05      1.67    1.30    0.91
  FID1148              CONDUIT     0.190     0  04:10      1.07    0.47    0.32
  FID1149              CONDUIT     0.190     0  04:10      2.30    0.07    0.35
  FID3364              CONDUIT     0.204     0  04:10      1.02    0.17    0.42
  FID3671              CONDUIT     0.011     0  04:15      1.14    0.08    0.19
  FID3672              CONDUIT     0.038     0  04:15      1.60    0.28    0.36
  FID3762              CONDUIT     0.075     0  04:15      1.92    0.22    0.48
  FID3765              CONDUIT     0.163     0  04:15      2.78    0.46    0.57
  FID4112              CONDUIT     0.198     0  04:05      1.78    0.35    0.41
  FID4186              CONDUIT     0.013     0  04:05      0.98    0.06    0.17
  FID4187              CONDUIT     0.013     0  04:05      1.55    0.03    0.12
  FID4201              CONDUIT     0.139     0  04:05      1.28    1.43    0.92
  FID4202              CONDUIT     0.139     0  04:05      1.47    1.01    0.77
  FID4203              CONDUIT     0.000     0  00:00      0.00    0.00    0.31
  FID4299              CONDUIT     0.008     0  03:30      0.99    0.03    0.12
  FID4372              CONDUIT     0.131     0  04:05      0.66    0.02    0.35
  FID4498              CONDUIT     0.028     0  04:10      0.35    0.10    0.68
  FID4806              CONDUIT     0.213     0  04:05      5.08    0.03    0.11
  FID4807              CONDUIT     0.002     0  03:30      0.76    0.01    0.08
  FID4882              CONDUIT     0.000     0  03:51      0.01    0.00    0.52
  FID4884              CONDUIT     0.076     0  04:10      1.94    0.03    0.16
  FID4914              CONDUIT     0.016     0  04:10      0.23    0.06    0.58
  FID4915              CONDUIT     0.003     0  03:55      0.24    0.09    0.21
  FID4916              CONDUIT     0.003     0  03:55      0.29    0.09    0.16
  FID4917              CONDUIT     0.004     0  03:55      0.76    0.01    0.54
  FID5307              CONDUIT     0.014     0  04:05      0.48    0.24    0.30
  FID5308              CONDUIT     0.007     0  03:30      1.24    0.04    0.13
  FID5312              CONDUIT     0.013     0  04:05      0.64    0.08    0.19
  FID5865              CONDUIT     0.446     0  04:10      4.73    0.14    0.36
  C9                   CHANNEL     0.667     0  04:15      0.66    0.07    0.48
  C12                  CHANNEL     0.668     0  04:20      0.46    0.29    0.57
  C13                  CHANNEL     0.680     0  04:20      0.62    0.30    0.59
  C14                  CHANNEL     0.465     0  04:34      0.69    0.20    0.61
  C52                  CONDUIT     0.209     0  04:05      1.54    0.32    0.56
  C130                 CONDUIT     0.043     0  04:05      0.67    0.80    0.41
  C131                 CONDUIT     0.043     0  04:05      1.54    0.09    0.45
  C139                 CONDUIT     0.002     0  03:32      0.09    0.02    0.52
  C191                 CHANNEL     0.499     0  04:19      0.48    0.22    0.64
  C193                 CHANNEL     0.516     0  04:18      0.38    0.23    0.74
  C194                 CHANNEL     0.529     0  04:33      0.30    0.23    0.79
  C195                 CHANNEL     0.533     0  04:33      0.35    0.10    0.63
  C196                 CONDUIT     0.488     0  04:19      0.45    0.36    0.67
  C197                 CONDUIT     0.656     0  04:15      0.24    0.31    0.88
  C198                 CHANNEL     0.728     0  04:15      0.31    0.14    0.52
  C199                 CHANNEL     0.729     0  04:15      0.32    3.18    0.61
  C200                 CHANNEL     0.730     0  04:15      0.34    2.88    0.58
  C201                 CHANNEL     0.733     0  04:15      0.35    0.22    0.49
  C202                 CHANNEL     0.739     0  04:15      0.35    0.22    0.50
  C203                 CHANNEL     0.744     0  04:15      0.35    0.22    0.51
  C204                 CHANNEL     0.749     0  04:15      0.51    0.22    0.52
  C205                 CONDUIT     0.891     0  04:05      0.35    0.62    0.64
  C206                 CHANNEL     1.065     0  04:05      0.43    0.31    0.53
  C207                 CHANNEL     1.023     0  04:05      0.42    0.30    0.53
  C208                 CHANNEL     0.958     0  04:06      0.40    0.28    0.52
  C209                 CHANNEL     0.947     0  04:07      0.40    0.28    0.52
  C210                 CHANNEL     0.951     0  04:07      0.48    0.29    0.61
  C211                 CHANNEL     0.958     0  04:08      0.47    0.35    0.56
  C212                 CONDUIT     1.243     0  04:05      0.47    0.72    0.67
  C213                 CHANNEL     1.232     0  04:05      0.60    0.45    0.56
  C214                 CHANNEL     1.214     0  04:05      0.63    0.44    0.54
  C215                 CONDUIT     1.147     0  04:08      0.41    0.66    0.70
  C216                 CONDUIT     1.123     0  04:09      0.51    0.84    0.58
  C217                 CONDUIT     1.132     0  04:09      0.43    0.45    0.45
  C218                 CHANNEL     1.279     0  04:09      0.54    0.46    0.63
  C219                 CHANNEL     1.274     0  04:10      0.54    0.46    0.62
  C220                 CHANNEL     1.267     0  04:10      0.55    0.46    0.61
  C221                 CHANNEL     1.266     0  04:11      0.57    0.46    0.59
  C222                 CONDUIT     1.322     0  04:11      0.55    0.89    0.69
  C223                 CHANNEL     1.406     0  04:11      1.38    0.18    0.60
  C224                 CHANNEL     1.400     0  04:12      0.52    0.91    0.91
  C225                 CHANNEL     1.394     0  04:21      0.53    0.90    0.90
  C226                 CHANNEL     1.389     0  04:21      0.54    0.90    0.88
  C227                 CONDUIT     1.384     0  04:23      0.42    1.12    0.94
  C228                 CHANNEL     1.394     0  04:23      0.68    0.57    0.74
  C229                 CONDUIT     1.450     0  04:20      0.35    0.25    0.54
  C230                 CHANNEL     1.454     0  04:20      0.67    0.59    0.76
  C231                 CHANNEL     1.446     0  04:20      0.67    0.59    0.76
  C232                 CHANNEL     1.437     0  04:22      0.67    0.59    0.76
  C233                 CHANNEL     1.430     0  04:26      0.68    0.58    0.75
  C234                 CONDUIT     1.430     0  04:25      0.51    0.59    0.59
  C235                 CHANNEL     1.433     0  04:25      0.68    0.59    0.75
  C236                 CHANNEL     1.508     0  04:24      0.68    0.72    0.84
  C237                 CHANNEL     1.508     0  04:24      0.67    0.72    0.84
  C238                 CHANNEL     1.546     0  04:30      0.70    0.74    0.84
  C239                 CHANNEL     1.546     0  04:30      0.70    0.74    0.84
  C240                 CHANNEL     1.545     0  04:30      0.70    0.72    0.84
  C241                 CHANNEL     1.547     0  04:30      0.76    0.74    0.84
  C242                 CONDUIT     1.552     0  04:30      0.51    0.54    0.67
  C243                 CHANNEL     1.556     0  04:31      0.73    0.74    0.81
  C244                 CHANNEL     1.558     0  04:32      0.94    0.26    0.48
  C245                 CONDUIT     1.559     0  04:32      0.62    0.43    0.62
  C246                 CHANNEL     1.678     0  04:31      0.59    0.54    0.71
  C247                 CHANNEL     1.673     0  04:33      0.61    0.54    0.70
  C248                 CHANNEL     1.672     0  04:35      0.64    0.54    0.67
  C249                 CHANNEL     1.673     0  04:36      2.75    0.67    0.69
  C250                 CONDUIT     1.674     0  04:36      0.74    0.61    0.56
  C251                 CONDUIT     1.674     0  04:36      0.74    0.61    0.56
  C252                 CHANNEL     1.736     0  04:31      2.05    0.70    0.66
  C253                 CHANNEL     1.733     0  04:32      0.84    0.39    0.66
  C254                 CHANNEL     1.730     0  04:34      1.56    0.39    0.70
  C255                 CHANNEL     1.729     0  04:36      1.87    0.39    0.76
  C256                 CHANNEL     1.742     0  04:36      1.34    0.40    0.81
  C257                 CHANNEL     1.744     0  04:37      1.25    0.40    0.84
  C258                 CONDUIT     1.744     0  04:37      0.61    0.64    0.71
  C259                 CHANNEL     1.746     0  04:37      1.08    0.40    0.90
  C260                 CHANNEL     1.749     0  04:38      1.03    0.40    0.94
  C261                 CHANNEL     1.763     0  04:37      0.85    0.40    0.96
  C262                 CHANNEL     1.766     0  04:38      1.66    0.40    0.99
  C263                 CHANNEL     1.771     0  04:38      0.48    0.41    0.70
  C264                 CONDUIT     1.774     0  04:39      0.57    0.92    0.75
  C265                 CHANNEL     1.946     0  04:30      0.61    0.45    0.62
  C266                 CHANNEL     1.944     0  04:32      0.64    0.38    0.68
  C267                 CHANNEL     1.944     0  04:33      0.64    0.38    0.68
  C268                 CHANNEL     1.944     0  04:33      0.64    0.38    0.68
  C269                 CHANNEL     1.951     0  04:33      0.88    0.38    0.68
  C270                 CHANNEL     1.952     0  04:34      0.65    0.38    0.68
  C271                 CHANNEL     1.953     0  04:34      0.65    0.38    0.68
  C272                 CHANNEL     1.954     0  04:34      0.65    0.38    0.68
  C273                 CHANNEL     2.015     0  04:31      0.67    0.39    0.67
  C274                 CHANNEL     2.013     0  04:32      0.68    0.39    0.67
  C275                 CHANNEL     2.011     0  04:32      0.70    0.39    0.66
  C276                 CHANNEL     2.010     0  04:32      0.72    0.39    0.65
  C277                 CHANNEL     2.009     0  04:33      0.75    0.39    0.64
  C278                 CHANNEL     2.007     0  04:33      0.79    0.39    0.62
  C279                 CHANNEL     2.005     0  04:34      0.91    0.39    0.57
  C280                 CHANNEL     2.005     0  04:36      0.75    0.68    0.78
  C281                 CHANNEL     2.062     0  04:35      0.77    0.70    0.78
  C282                 CHANNEL     2.061     0  04:35      0.77    0.70    0.77
  C283                 CHANNEL     2.074     0  04:35      0.79    0.71    0.77
  C284                 CHANNEL     2.073     0  04:35      0.81    0.70    0.75
  C285                 CHANNEL     2.071     0  04:35      0.84    0.70    0.73
  C286                 CHANNEL     2.069     0  04:36      0.94    0.50    0.72
  C287                 CHANNEL     2.068     0  04:36      0.94    0.50    0.72
  C288                 CHANNEL     2.066     0  04:36      0.94    0.50    0.72
  C289                 CHANNEL     2.065     0  04:37      0.94    0.50    0.72
  C290                 CHANNEL     2.064     0  04:37      0.93    0.50    0.72
  C291                 CHANNEL     2.064     0  04:37      0.93    0.50    0.72
  C292                 CHANNEL     2.098     0  04:37      0.94    0.51    0.72
  C293                 CHANNEL     2.097     0  04:38      0.94    0.51    0.72
  C294                 CHANNEL     2.096     0  04:38      0.95    0.51    0.72
  C295                 CHANNEL     2.096     0  04:38      0.95    0.51    0.72
  C296                 CHANNEL     2.095     0  04:38      0.95    0.51    0.72
  C297                 CHANNEL     2.095     0  04:39      0.95    0.51    0.72
  C298                 CHANNEL     2.094     0  04:39      0.95    0.51    0.72
  C299                 CHANNEL     2.094     0  04:39      0.96    0.51    0.71
  C300                 CHANNEL     2.093     0  04:39      0.98    0.51    0.70
  C301                 CHANNEL     2.093     0  04:40      1.49    0.37    0.46
  C302                 CHANNEL     0.666     0  04:15      0.57    0.10    0.43
  C303                 CHANNEL     0.505     0  04:19      0.43    0.22    0.68
  C353                 CONDUIT     0.075     0  04:15      1.87    0.03    0.11
  
  
  ***************************
  Flow Classification Summary
  ***************************
  
  -------------------------------------------------------------------------------------
                      Adjusted    ---------- Fraction of Time in Flow Class ---------- 
                       /Actual         Up    Down  Sub   Sup   Up    Down  Norm  Inlet 
  Conduit               Length    Dry  Dry   Dry   Crit  Crit  Crit  Crit  Ltd   Ctrl  
  -------------------------------------------------------------------------------------
  FID1123                 1.00   0.18  0.00  0.00  0.31  0.00  0.00  0.51  0.21  0.00
  FID1139                 1.00   0.16  0.00  0.00  0.19  0.00  0.00  0.64  0.13  0.00
  FID1148                 1.00   0.14  0.00  0.00  0.52  0.00  0.00  0.34  0.00  0.00
  FID1149                 1.00   0.15  0.00  0.00  0.45  0.06  0.00  0.33  0.38  0.00
  FID3364                 1.00   0.14  0.01  0.00  0.86  0.00  0.00  0.00  0.70  0.00
  FID3671                 1.00   0.22  0.00  0.00  0.00  0.00  0.00  0.78  0.00  0.00
  FID3672                 1.00   0.19  0.00  0.00  0.00  0.00  0.00  0.81  0.00  0.00
  FID3762                 1.00   0.01  0.16  0.00  0.71  0.12  0.00  0.00  0.67  0.00
  FID3765                 1.00   0.01  0.16  0.00  0.66  0.17  0.00  0.00  0.68  0.00
  FID4112                 1.00   0.16  0.00  0.00  0.00  0.00  0.00  0.84  0.00  0.00
  FID4186                 1.00   0.22  0.00  0.00  0.36  0.15  0.00  0.27  0.00  0.00
  FID4187                 1.00   0.24  0.00  0.00  0.00  0.00  0.00  0.76  0.00  0.00
  FID4201                 1.00   0.16  0.00  0.00  0.76  0.00  0.00  0.08  0.44  0.00
  FID4202                 1.00   0.19  0.00  0.00  0.00  0.00  0.00  0.81  0.00  0.00
  FID4203                 1.00   0.17  0.83  0.00  0.00  0.00  0.00  0.00  0.00  0.00
  FID4299                 1.00   0.23  0.00  0.00  0.00  0.00  0.00  0.77  0.00  0.00
  FID4372                 1.00   0.07  0.12  0.00  0.81  0.00  0.00  0.00  0.66  0.00
  FID4498                 1.00   0.15  0.00  0.00  0.85  0.00  0.00  0.00  0.59  0.00
  FID4806                 1.00   0.17  0.00  0.00  0.00  0.00  0.00  0.83  0.00  0.00
  FID4807                 1.00   0.24  0.00  0.00  0.00  0.00  0.00  0.76  0.00  0.00
  FID4882                 1.00   0.23  0.31  0.00  0.28  0.00  0.00  0.18  0.59  0.00
  FID4884                 1.00   0.15  0.00  0.00  0.19  0.04  0.00  0.62  0.15  0.00
  FID4914                 1.00   0.11  0.08  0.00  0.81  0.00  0.00  0.00  0.66  0.00
  FID4915                 1.00   0.24  0.00  0.00  0.75  0.00  0.00  0.01  0.49  0.00
  FID4916                 1.00   0.24  0.00  0.00  0.58  0.00  0.00  0.18  0.12  0.00
  FID4917                 1.00   0.25  0.00  0.00  0.43  0.01  0.00  0.32  0.32  0.00
  FID5307                 1.00   0.22  0.00  0.00  0.75  0.00  0.00  0.03  0.49  0.00
  FID5308                 1.00   0.23  0.00  0.00  0.00  0.00  0.00  0.77  0.00  0.00
  FID5312                 1.00   0.24  0.00  0.00  0.00  0.00  0.00  0.76  0.00  0.00
  FID5865                 1.00   0.14  0.00  0.00  0.18  0.14  0.00  0.54  0.23  0.00
  C9                      1.00   0.00  0.00  0.00  1.00  0.00  0.00  0.00  0.00  0.00
  C12                     1.00   0.00  0.00  0.00  1.00  0.00  0.00  0.00  0.00  0.00
  C13                     1.00   0.00  0.00  0.00  1.00  0.00  0.00  0.00  0.00  0.00
  C14                     1.00   0.00  0.00  0.00  1.00  0.00  0.00  0.00  0.00  0.00
  C52                     1.00   0.04  0.14  0.00  0.82  0.01  0.00  0.00  0.68  0.00
  C130                    1.00   0.22  0.00  0.00  0.53  0.00  0.00  0.25  0.00  0.00
  C131                    1.00   0.25  0.00  0.00  0.38  0.02  0.00  0.35  0.29  0.00
  C139                    1.00   0.14  0.48  0.00  0.37  0.00  0.01  0.00  0.49  0.00
  C191                    1.00   0.00  0.00  0.00  1.00  0.00  0.00  0.00  0.00  0.00
  C193                    1.00   0.00  0.00  0.00  1.00  0.00  0.00  0.00  0.00  0.00
  C194                    1.00   0.00  0.00  0.00  1.00  0.00  0.00  0.00  0.00  0.00
  C195                    1.00   0.01  0.00  0.00  0.99  0.00  0.00  0.00  0.00  0.00
  C196                    1.00   0.00  0.00  0.00  1.00  0.00  0.00  0.00  0.00  0.00
  C197                    1.00   0.01  0.00  0.00  0.99  0.00  0.00  0.00  0.00  0.00
  C198                    1.00   0.01  0.00  0.00  0.99  0.00  0.00  0.00  0.00  0.00
  C199                    1.00   0.01  0.00  0.00  0.99  0.00  0.00  0.00  0.00  0.00
  C200                    1.00   0.01  0.00  0.00  0.99  0.00  0.00  0.00  0.00  0.00
  C201                    1.00   0.01  0.00  0.00  0.99  0.00  0.00  0.00  0.00  0.00
  C202                    1.00   0.01  0.00  0.00  0.99  0.00  0.00  0.00  0.00  0.00
  C203                    1.00   0.01  0.00  0.00  0.99  0.00  0.00  0.00  0.00  0.00
  C204                    1.00   0.01  0.00  0.00  0.99  0.00  0.00  0.00  0.00  0.00
  C205                    1.00   0.02  0.00  0.00  0.98  0.00  0.00  0.00  0.00  0.00
  C206                    1.00   0.02  0.00  0.00  0.98  0.00  0.00  0.00  0.00  0.00
  C207                    1.00   0.02  0.00  0.00  0.98  0.00  0.00  0.00  0.00  0.00
  C208                    1.00   0.02  0.00  0.00  0.98  0.00  0.00  0.00  0.00  0.00
  C209                    1.00   0.02  0.00  0.00  0.98  0.00  0.00  0.00  0.00  0.00
  C210                    1.00   0.02  0.00  0.00  0.98  0.00  0.00  0.00  0.00  0.00
  C211                    1.00   0.02  0.00  0.00  0.98  0.00  0.00  0.00  0.00  0.00
  C212                    1.00   0.02  0.00  0.00  0.98  0.00  0.00  0.00  0.00  0.00
  C213                    1.00   0.02  0.00  0.00  0.98  0.00  0.00  0.00  0.00  0.00
  C214                    1.00   0.02  0.00  0.00  0.98  0.00  0.00  0.00  0.00  0.00
  C215                    1.00   0.03  0.00  0.00  0.97  0.00  0.00  0.00  0.71  0.00
  C216                    1.00   0.03  0.00  0.00  0.97  0.00  0.00  0.00  0.00  0.00
  C217                    1.00   0.03  0.00  0.00  0.97  0.00  0.00  0.00  0.00  0.00
  C218                    1.00   0.03  0.00  0.00  0.97  0.00  0.00  0.00  0.00  0.00
  C219                    1.00   0.03  0.00  0.00  0.97  0.00  0.00  0.00  0.00  0.00
  C220                    1.00   0.04  0.00  0.00  0.96  0.00  0.00  0.00  0.00  0.00
  C221                    1.00   0.04  0.00  0.00  0.96  0.00  0.00  0.00  0.00  0.00
  C222                    1.00   0.04  0.00  0.00  0.96  0.00  0.00  0.00  0.00  0.00
  C223                    1.00   0.04  0.00  0.00  0.96  0.00  0.00  0.00  0.01  0.00
  C224                    1.00   0.04  0.00  0.00  0.96  0.00  0.00  0.00  0.00  0.00
  C225                    1.00   0.04  0.00  0.00  0.96  0.00  0.00  0.00  0.00  0.00
  C226                    1.00   0.04  0.00  0.00  0.96  0.00  0.00  0.00  0.00  0.00
  C227                    1.00   0.05  0.00  0.00  0.95  0.00  0.00  0.00  0.00  0.00
  C228                    1.00   0.05  0.00  0.00  0.95  0.00  0.00  0.00  0.00  0.00
  C229                    1.00   0.05  0.00  0.00  0.95  0.00  0.00  0.00  0.00  0.00
  C230                    1.00   0.05  0.00  0.00  0.95  0.00  0.00  0.00  0.00  0.00
  C231                    1.00   0.06  0.00  0.00  0.94  0.00  0.00  0.00  0.01  0.00
  C232                    1.00   0.06  0.00  0.00  0.94  0.00  0.00  0.00  0.00  0.00
  C233                    1.00   0.06  0.00  0.00  0.94  0.00  0.00  0.00  0.00  0.00
  C234                    1.00   0.06  0.00  0.00  0.94  0.00  0.00  0.00  0.00  0.00
  C235                    1.00   0.06  0.00  0.00  0.94  0.00  0.00  0.00  0.00  0.00
  C236                    1.00   0.06  0.00  0.00  0.94  0.00  0.00  0.00  0.00  0.00
  C237                    1.00   0.07  0.00  0.00  0.93  0.00  0.00  0.00  0.00  0.00
  C238                    1.00   0.07  0.00  0.00  0.93  0.00  0.00  0.00  0.00  0.00
  C239                    1.00   0.07  0.00  0.00  0.93  0.00  0.00  0.00  0.00  0.00
  C240                    1.00   0.07  0.00  0.00  0.93  0.00  0.00  0.00  0.00  0.00
  C241                    1.00   0.07  0.00  0.00  0.93  0.00  0.00  0.00  0.00  0.00
  C242                    1.00   0.07  0.00  0.00  0.93  0.00  0.00  0.00  0.00  0.00
  C243                    1.00   0.07  0.00  0.00  0.93  0.00  0.00  0.00  0.00  0.00
  C244                    1.00   0.07  0.00  0.00  0.92  0.01  0.00  0.00  0.00  0.00
  C245                    1.00   0.08  0.00  0.00  0.92  0.00  0.00  0.00  0.00  0.00
  C246                    1.00   0.08  0.00  0.00  0.92  0.00  0.00  0.00  0.50  0.00
  C247                    1.00   0.09  0.00  0.00  0.91  0.00  0.00  0.00  0.00  0.00
  C248                    1.00   0.10  0.00  0.00  0.90  0.00  0.00  0.00  0.00  0.00
  C249                    1.00   0.11  0.00  0.00  0.89  0.00  0.00  0.00  0.00  0.00
  C250                    1.00   0.12  0.00  0.00  0.88  0.00  0.00  0.00  0.00  0.00
  C251                    1.00   0.13  0.00  0.00  0.87  0.00  0.00  0.00  0.00  0.00
  C252                    1.00   0.13  0.00  0.00  0.87  0.00  0.00  0.00  0.00  0.00
  C253                    1.00   0.13  0.00  0.00  0.87  0.00  0.00  0.00  0.00  0.00
  C254                    1.00   0.14  0.00  0.00  0.86  0.00  0.00  0.00  0.04  0.00
  C255                    1.00   0.14  0.00  0.00  0.86  0.00  0.00  0.00  0.00  0.00
  C256                    1.00   0.13  0.01  0.00  0.85  0.00  0.00  0.00  0.00  0.00
  C257                    1.00   0.13  0.00  0.00  0.87  0.00  0.00  0.00  0.00  0.00
  C258                    1.00   0.13  0.02  0.00  0.85  0.00  0.00  0.00  0.00  0.00
  C259                    1.00   0.13  0.00  0.00  0.87  0.00  0.00  0.00  0.00  0.00
  C260                    1.00   0.15  0.01  0.00  0.84  0.00  0.00  0.00  0.00  0.00
  C261                    1.00   0.15  0.00  0.00  0.85  0.00  0.00  0.00  0.00  0.00
  C262                    1.00   0.15  0.00  0.00  0.84  0.00  0.00  0.00  0.00  0.00
  C263                    1.00   0.14  0.00  0.00  0.86  0.00  0.00  0.00  0.00  0.00
  C264                    1.00   0.14  0.00  0.00  0.86  0.00  0.00  0.00  0.01  0.00
  C265                    1.00   0.14  0.00  0.00  0.86  0.00  0.00  0.00  0.00  0.00
  C266                    1.00   0.15  0.00  0.00  0.85  0.00  0.00  0.00  0.00  0.00
  C267                    1.00   0.17  0.00  0.00  0.83  0.00  0.00  0.00  0.00  0.00
  C268                    1.00   0.18  0.00  0.00  0.82  0.00  0.00  0.00  0.00  0.00
  C269                    1.00   0.18  0.00  0.00  0.82  0.00  0.00  0.00  0.00  0.00
  C270                    1.00   0.18  0.00  0.00  0.82  0.00  0.00  0.00  0.00  0.00
  C271                    1.00   0.17  0.02  0.00  0.82  0.00  0.00  0.00  0.01  0.00
  C272                    1.00   0.15  0.01  0.00  0.84  0.00  0.00  0.00  0.00  0.00
  C273                    1.00   0.15  0.00  0.00  0.85  0.00  0.00  0.00  0.00  0.00
  C274                    1.00   0.16  0.00  0.00  0.84  0.00  0.00  0.00  0.00  0.00
  C275                    1.00   0.19  0.00  0.00  0.81  0.00  0.00  0.00  0.00  0.00
  C276                    1.00   0.19  0.00  0.00  0.81  0.00  0.00  0.00  0.00  0.00
  C277                    1.00   0.19  0.00  0.00  0.81  0.00  0.00  0.00  0.00  0.00
  C278                    1.00   0.20  0.00  0.00  0.80  0.00  0.00  0.00  0.00  0.00
  C279                    1.00   0.20  0.00  0.00  0.80  0.00  0.00  0.00  0.00  0.00
  C280                    1.00   0.16  0.04  0.00  0.80  0.00  0.00  0.00  0.00  0.00
  C281                    1.00   0.16  0.00  0.00  0.84  0.00  0.00  0.00  0.00  0.00
  C282                    1.00   0.17  0.00  0.00  0.83  0.00  0.00  0.00  0.00  0.00
  C283                    1.00   0.18  0.00  0.00  0.82  0.00  0.00  0.00  0.00  0.00
  C284                    1.00   0.20  0.00  0.00  0.80  0.00  0.00  0.00  0.00  0.00
  C285                    1.00   0.21  0.00  0.00  0.79  0.00  0.00  0.00  0.00  0.00
  C286                    1.00   0.21  0.00  0.00  0.79  0.00  0.00  0.00  0.23  0.00
  C287                    1.00   0.17  0.04  0.00  0.79  0.00  0.00  0.00  0.22  0.00
  C288                    1.00   0.17  0.00  0.00  0.83  0.00  0.00  0.00  0.00  0.00
  C289                    1.00   0.21  0.00  0.00  0.79  0.00  0.00  0.00  0.00  0.00
  C290                    1.00   0.16  0.06  0.00  0.78  0.00  0.00  0.00  0.00  0.00
  C291                    1.00   0.16  0.00  0.00  0.84  0.00  0.00  0.00  0.03  0.00
  C292                    1.00   0.18  0.00  0.00  0.82  0.00  0.00  0.00  0.00  0.00
  C293                    1.00   0.19  0.00  0.00  0.81  0.00  0.00  0.00  0.00  0.00
  C294                    1.00   0.20  0.00  0.00  0.80  0.00  0.00  0.00  0.00  0.00
  C295                    1.00   0.22  0.00  0.00  0.78  0.00  0.00  0.00  0.00  0.00
  C296                    1.00   0.22  0.00  0.00  0.78  0.00  0.00  0.00  0.00  0.00
  C297                    1.00   0.22  0.00  0.00  0.78  0.00  0.00  0.00  0.00  0.00
  C298                    1.00   0.23  0.00  0.00  0.77  0.00  0.00  0.00  0.00  0.00
  C299                    1.00   0.23  0.00  0.00  0.77  0.00  0.00  0.00  0.00  0.00
  C300                    1.00   0.23  0.00  0.00  0.77  0.00  0.00  0.00  0.00  0.00
  C301                    1.00   0.23  0.00  0.00  0.77  0.00  0.00  0.00  0.00  0.00
  C302                    1.00   0.00  0.00  0.00  1.00  0.00  0.00  0.00  0.00  0.00
  C303                    1.00   0.00  0.00  0.00  1.00  0.00  0.00  0.00  0.00  0.00
  C353                    1.00   0.18  0.00  0.00  0.00  0.00  0.00  0.82  0.00  0.00
  
  
  *************************
  Conduit Surcharge Summary
  *************************
  
  ----------------------------------------------------------------------------
                                                           Hours        Hours 
                         --------- Hours Full --------   Above Full   Capacity
  Conduit                Both Ends  Upstream  Dnstream   Normal Flow   Limited
  ----------------------------------------------------------------------------
  FID1123                     0.01      0.01      0.39      0.01         0.01
  FID1139                     0.01      0.05      0.01      0.08         0.01
  FID4201                     0.01      0.08      0.01      0.17         0.01
  FID4202                     0.01      0.01      0.01      0.02         0.01
  FID4498                     0.01      0.01      1.52      0.01         0.01
  FID4882                     0.01      0.01      2.04      0.01         0.01
  FID4914                     0.01      0.01      2.07      0.01         0.01
  FID4917                     0.01      0.01      0.90      0.01         0.01
  C199                        0.01      0.01      0.01      8.53         0.01
  C200                        0.01      0.01      0.01      8.47         0.01
  C227                        0.01      0.01      0.01      0.53         0.01
  C262                        0.01      0.01      0.74      0.01         0.01
  
  
  ***************************
  Link Pollutant Load Summary
  ***************************
  
  --------------------------------------------------------------
                                 TSS            TP           TDP
  Link                            kg            kg            kg
  --------------------------------------------------------------
  FID1123                     21.451         0.002         0.020
  FID1139                    183.936         0.031         0.141
  FID1148                    323.928         0.076         0.239
  FID1149                    323.196         0.076         0.239
  FID3364                    381.587         0.094         0.274
  FID3671                     16.396         0.006         0.010
  FID3672                     97.633         0.028         0.062
  FID3762                    220.690         0.093         0.144
  FID3765                    368.803         0.123         0.235
  FID4112                    147.646         0.044         0.097
  FID4186                     21.981         0.012         0.015
  FID4187                     20.896         0.012         0.014
  FID4201                     90.278         0.034         0.060
  FID4202                     88.654         0.033         0.058
  FID4203                      0.000         0.000         0.000
  FID4299                     13.476         0.006         0.008
  FID4372                    959.385         0.263         0.562
  FID4498                     59.416         0.087         0.058
  FID4806                   1626.218         0.493         0.506
  FID4807                      0.000         0.000         0.002
  FID4882                      0.119         0.000         0.000
  FID4884                     95.895         0.009         0.088
  FID4914                     54.677         0.022         0.033
  FID4915                      1.880         0.002         0.005
  FID4916                      0.217         0.000         0.004
  FID4917                      0.091         0.000         0.003
  FID5307                     30.343         0.008         0.027
  FID5308                     15.239         0.007         0.009
  FID5312                     26.757         0.008         0.025
  FID5865                    240.960         0.940         0.384
  C9                         177.991         1.062         1.309
  C12                        176.977         1.047         1.290
  C13                        232.261         1.053         1.315
  C14                        151.949         0.694         0.871
  C52                        523.473         0.146         0.346
  C130                        31.320         0.009         0.037
  C131                        30.692         0.009         0.037
  C139                         4.539         0.001         0.003
  C191                       266.235         0.721         0.934
  C193                       268.742         0.703         0.910
  C194                       264.478         0.698         0.907
  C195                       263.901         0.696         0.904
  C196                       249.860         0.719         0.928
  C197                       633.261         0.817         1.136
  C198                       853.798         0.907         1.278
  C199                       858.301         0.905         1.276
  C200                       856.317         0.902         1.271
  C201                       869.056         0.898         1.267
  C202                       880.437         0.897         1.271
  C203                       878.920         0.894         1.267
  C204                       875.849         0.891         1.264
  C205                      1167.247         0.960         1.463
  C206                      1313.311         1.001         1.556
  C207                      1319.798         1.000         1.558
  C208                      1337.597         1.005         1.565
  C209                      1323.651         0.998         1.555
  C210                      1324.937         0.996         1.553
  C211                      1322.823         0.994         1.550
  C212                      1729.368         1.124         1.814
  C213                      1737.030         1.126         1.817
  C214                      1737.649         1.125         1.817
  C215                      1860.976         1.162         1.866
  C216                      1774.416         1.134         1.827
  C217                      1865.269         1.165         1.883
  C218                      2384.745         1.308         2.224
  C219                      2393.264         1.307         2.225
  C220                      2397.721         1.304         2.222
  C221                      2436.894         1.312         2.240
  C222                      2658.457         1.366         2.383
  C223                      2953.454         1.440         2.589
  C224                      2992.570         1.445         2.603
  C225                      2989.005         1.437         2.599
  C226                      2987.690         1.433         2.595
  C227                      3119.224         1.456         2.637
  C228                      3038.594         1.441         2.604
  C229                      3332.634         1.546         2.808
  C230                      3341.428         1.550         2.813
  C231                      3387.346         1.557         2.828
  C232                      3362.607         1.546         2.810
  C233                      3456.055         1.559         2.844
  C234                      3375.954         1.537         2.803
  C235                      3406.133         1.547         2.822
  C236                      4362.106         1.808         3.382
  C237                      4399.423         1.814         3.393
  C238                      4781.725         1.923         3.644
  C239                      4759.071         1.915         3.630
  C240                      4742.696         1.910         3.622
  C241                      4757.206         1.917         3.630
  C242                      4795.549         1.927         3.659
  C243                      4926.818         1.956         3.709
  C244                      4841.396         1.942         3.674
  C245                      4845.360         1.941         3.676
  C246                      6611.152         2.467         4.223
  C247                      6519.399         2.443         4.201
  C248                      6564.670         2.451         4.208
  C249                      6498.548         2.431         4.185
  C250                      6506.311         2.435         4.191
  C251                      6509.705         2.435         4.191
  C252                      6885.139         2.527         4.462
  C253                      6924.736         2.534         4.470
  C254                      6946.693         2.537         4.472
  C255                      6938.295         2.532         4.465
  C256                      6974.216         2.611         4.512
  C257                      6956.157         2.608         4.511
  C258                      6957.711         2.608         4.509
  C259                      7000.701         2.616         4.516
  C260                      6957.675         2.604         4.503
  C261                      7062.912         2.614         4.591
  C262                      7114.779         2.622         4.595
  C263                      7075.294         2.610         4.582
  C264                      7065.630         2.616         4.602
  C265                      7297.217         3.532         4.948
  C266                      7312.040         3.540         4.951
  C267                      7307.714         3.535         4.946
  C268                      7322.652         3.544         4.946
  C269                      7317.161         3.523         4.955
  C270                      7333.357         3.535         4.958
  C271                      7319.215         3.522         4.952
  C272                      7316.579         3.520         4.950
  C273                      7657.659         3.608         5.193
  C274                      7654.053         3.604         5.189
  C275                      7650.685         3.600         5.184
  C276                      7649.271         3.597         5.182
  C277                      7645.739         3.593         5.178
  C278                      7645.226         3.592         5.176
  C279                      7647.690         3.593         5.175
  C280                      7642.580         3.588         5.172
  C281                      7825.057         3.618         5.312
  C282                      7828.542         3.620         5.312
  C283                      7858.989         3.627         5.347
  C284                      7860.402         3.627         5.346
  C285                      7862.970         3.628         5.345
  C286                      7866.039         3.629         5.344
  C287                      7866.353         3.628         5.342
  C288                      7864.272         3.625         5.339
  C289                      7863.753         3.623         5.338
  C290                      7864.413         3.623         5.336
  C291                      7859.483         3.618         5.333
  C292                      8047.188         3.634         5.470
  C293                      8045.760         3.632         5.468
  C294                      8047.475         3.632         5.467
  C295                      8042.765         3.627         5.463
  C296                      8044.116         3.628         5.463
  C297                      8047.523         3.630         5.463
  C298                      8048.024         3.629         5.462
  C299                      8044.470         3.625         5.459
  C300                      8046.624         3.627         5.458
  C301                      8043.659         3.623         5.456
  C302                       177.456         1.057         1.304
  C303                       268.102         0.714         0.924
  C353                       180.135         0.011         0.134
  

  Analysis begun on:  Tue Oct 10 17:37:26 2017
  Analysis ended on:  Tue Oct 10 17:37:41 2017
  Total elapsed time: 00:00:15