
  EPA STORM WATER MANAGEMENT MODEL - VERSION 5.1 (Build 5.1.010)
  --------------------------------------------------------------

  WARNING 04: minimum elevation drop used for Conduit C199
  WARNING 04: minimum elevation drop used for Conduit C200
  WARNING 02: maximum depth increased for Node FID1955
  WARNING 02: maximum depth increased for Node FID1960
  WARNING 02: maximum depth increased for Node FID1965
  WARNING 02: maximum depth increased for Node FID1968
  WARNING 02: maximum depth increased for Node FID2244
  WARNING 02: maximum depth increased for Node FID2442
  WARNING 02: maximum depth increased for Node FID2446
  WARNING 02: maximum depth increased for Node FID5504
  WARNING 02: maximum depth increased for Node FID5527
  WARNING 02: maximum depth increased for Node AFID6926
  WARNING 02: maximum depth increased for Node AFID7376
  
  *********************************************************
  NOTE: The summary statistics displayed in this report are
  based on results found at every computational time step,  
  not just on results from each reporting time step.
  *********************************************************
  
  ****************
  Analysis Options
  ****************
  Flow Units ............... CMS
  Process Models:
    Rainfall/Runoff ........ YES
    RDII ................... NO
    Snowmelt ............... NO
    Groundwater ............ NO
    Flow Routing ........... YES
    Ponding Allowed ........ YES
    Water Quality .......... YES
  Infiltration Method ...... GREEN_AMPT
  Flow Routing Method ...... DYNWAVE
  Starting Date ............ MAY-06-2016 15:00:00
  Ending Date .............. MAY-07-2016 00:00:00
  Antecedent Dry Days ...... 0.0
  Report Time Step ......... 00:01:00
  Wet Time Step ............ 00:01:00
  Dry Time Step ............ 01:00:00
  Routing Time Step ........ 5.00 sec
  Variable Time Step ....... YES
  Maximum Trials ........... 8
  Number of Threads ........ 3
  Head Tolerance ........... 0.001500 m
  
  
  **************************        Volume         Depth
  Runoff Quantity Continuity     hectare-m            mm
  **************************     ---------       -------
  Total Precipitation ......         2.583         6.709
  Evaporation Loss .........         0.000         0.000
  Infiltration Loss ........         1.176         3.055
  Surface Runoff ...........         0.965         2.507
  Final Storage ............         0.442         1.147
  Continuity Error (%) .....         0.001
  
  
  **************************           TSS            TP           TDP
  Runoff Quality Continuity             kg            kg            kg
  **************************    ----------    ----------    ----------
  Initial Buildup ..........         0.000         0.000         0.000
  Surface Buildup ..........     14507.812        10.257        16.751
  Wet Deposition ...........         0.000         0.000         0.000
  Sweeping Removal .........         0.000         0.000         0.000
  Infiltration Loss ........         0.000         0.000         0.000
  BMP Removal ..............         0.727         0.000         0.001
  Surface Runoff ...........      7271.611         4.382         7.744
  Remaining Buildup ........      7235.474         5.874         9.006
  Continuity Error (%) .....         0.000         0.000         0.000
  
  
  **************************        Volume        Volume
  Flow Routing Continuity        hectare-m      10^6 ltr
  **************************     ---------     ---------
  Dry Weather Inflow .......         0.000         0.000
  Wet Weather Inflow .......         0.965         9.652
  Groundwater Inflow .......         0.000         0.000
  RDII Inflow ..............         0.000         0.000
  External Inflow ..........         1.384        13.843
  External Outflow .........         1.705        17.051
  Flooding Loss ............         0.000         0.000
  Evaporation Loss .........         0.000         0.000
  Exfiltration Loss ........         0.000         0.000
  Initial Stored Volume ....         0.000         0.000
  Final Stored Volume ......         0.651         6.512
  Continuity Error (%) .....        -0.291
  
  
  **************************           TSS            TP           TDP
  Quality Routing Continuity            kg            kg            kg
  **************************    ----------    ----------    ----------
  Dry Weather Inflow .......         0.000         0.000         0.000
  Wet Weather Inflow .......      6726.291         4.355         7.726
  Groundwater Inflow .......         0.000         0.000         0.000
  RDII Inflow ..............         0.000         0.000         0.000
  External Inflow ..........       137.985         1.039         1.284
  External Outflow .........      6541.858         4.884         8.058
  Flooding Loss ............         0.000         0.000         0.000
  Exfiltration Loss ........         0.000         0.000         0.000
  Mass Reacted .............         0.000         0.000         0.000
  Initial Stored Mass ......         0.000         0.000         0.000
  Final Stored Mass ........        48.247         0.417         0.613
  Continuity Error (%) .....         3.994         1.726         3.762
  
  
  *************************
  Highest Continuity Errors
  *************************
  Node J72 (1.62%)
  Node FID2824 (1.56%)
  Node J19 (1.51%)
  Node J81 (1.48%)
  Node FID2449 (1.47%)
  
  
  ***************************
  Time-Step Critical Elements
  ***************************
  Link C241 (90.87%)
  Link C14 (8.22%)
  
  
  ********************************
  Highest Flow Instability Indexes
  ********************************
  All links are stable.
  
  
  *************************
  Routing Time Step Summary
  *************************
  Minimum Time Step           :     0.02 sec
  Average Time Step           :     0.93 sec
  Maximum Time Step           :     5.00 sec
  Percent in Steady State     :     0.00
  Average Iterations per Step :     2.00
  Percent Not Converging      :     0.00
  
  
  ***************************
  Subcatchment Runoff Summary
  ***************************
  
  --------------------------------------------------------------------------------------------------------
                            Total      Total      Total      Total      Total       Total     Peak  Runoff
                           Precip      Runon       Evap      Infil     Runoff      Runoff   Runoff   Coeff
  Subcatchment                 mm         mm         mm         mm         mm    10^6 ltr      CMS
  --------------------------------------------------------------------------------------------------------
  S0                         5.84       0.00       0.00       4.97       0.64        0.00     0.00   0.109
  S1                         5.84       0.00       0.00       2.28       2.61        0.26     0.08   0.446
  S2                         6.35       0.00       0.00       1.52       3.63        0.63     0.20   0.572
  S3                         5.84       0.00       0.00       3.63       1.63        0.05     0.04   0.280
  S4                         5.84       0.00       0.00       2.50       2.46        0.24     0.16   0.421
  S6                         6.35       0.00       0.00      -0.15       4.38        0.08     0.03   0.690
  S7                         6.35       0.00       0.00       2.59       3.05        1.19     0.35   0.481
  S8                         6.35       0.00       0.00      -0.14       4.40        0.00     0.00   0.692
  S9                         6.35       0.00       0.00       1.32       3.80        0.00     0.00   0.599
  S10                        6.35       0.00       0.00       1.44       3.71        0.01     0.00   0.584
  S11                        6.35       0.00       0.00       4.87       1.13        0.00     0.00   0.178
  S12                        6.35       0.00       0.00       1.70       3.52        0.00     0.00   0.554
  S13                        6.35       0.00       0.00       1.97       3.29        0.25     0.08   0.519
  S14                        6.35       0.00       0.00       4.26       1.58        0.01     0.00   0.248
  S16                        6.35       0.00       0.00       2.75       2.05        0.11     0.04   0.323
  S17                        6.35       0.00       0.00       1.63       3.54        0.68     0.21   0.557
  S18                        6.35       0.00       0.00       0.76       4.27        0.00     0.00   0.672
  S19                        6.35       0.00       0.00       3.19       2.38        0.05     0.02   0.376
  S20                        6.35       0.00       0.00       1.81       3.43        0.02     0.01   0.540
  S21                        6.35       0.00       0.00       3.71       0.60        0.32     0.07   0.095
  S22                        6.35       0.00       0.00       1.25       3.85        0.01     0.00   0.607
  S23                        6.35       0.00       0.00       3.58       2.09        0.03     0.01   0.329
  S24                        6.35       0.00       0.00       3.35       2.26        0.04     0.01   0.356
  S25                        6.35       0.00       0.00       2.04       3.24        0.04     0.01   0.511
  S27                        6.35       0.00       0.00       2.43       2.96        0.02     0.01   0.467
  S28                        5.84       0.00       0.00       5.83       0.01        0.00     0.00   0.001
  S29                        5.84       0.00       0.00       5.79       0.04        0.00     0.00   0.006
  S30                        6.35       0.00       0.00       6.33       0.02        0.00     0.00   0.003
  S31                        6.35       0.00       0.00       6.34       0.01        0.00     0.00   0.001
  S32                        6.35       0.00       0.00       4.51       1.39        0.01     0.00   0.219
  S33                        6.35       0.00       0.00       1.05       4.00        0.05     0.02   0.629
  S34                        6.35       0.00       0.00       3.28       1.13        0.40     0.09   0.178
  S35                        6.35       0.00       0.00       3.33       2.28        0.01     0.00   0.360
  S36                        6.35       0.00       0.00       4.92       1.08        0.01     0.01   0.170
  S37                        6.35       0.00       0.00       1.41       3.73        0.02     0.01   0.588
  S39                        6.35       0.00       0.00       3.49       2.15        0.32     0.10   0.339
  S40                        6.35       0.00       0.00       4.23       1.60        0.04     0.01   0.252
  S41                        6.35       0.00       0.00       1.78       3.44        0.47     0.15   0.542
  S42                        6.35       0.00       0.00       2.22       3.11        0.32     0.10   0.490
  S43                        6.35       0.00       0.00       4.58       1.34        0.03     0.01   0.210
  S44                        6.35       0.00       0.00       2.29       3.05        0.69     0.22   0.480
  S45                        8.13       0.00       0.00       4.20       3.22        0.00     0.00   0.396
  S47                        8.13       0.00       0.00       3.02       4.16        0.18     0.15   0.511
  S48                        8.13       0.00       0.00       3.74       3.60        0.01     0.01   0.443
  S49                        8.13       0.00       0.00       3.19       3.99        0.75     0.45   0.490
  S51                        8.13       0.00       0.00       6.87       1.04        0.01     0.01   0.128
  S52                        8.13       0.00       0.00       3.54       3.73        0.25     0.20   0.459
  S53                        8.13       0.00       0.00       3.38       3.84        0.54     0.35   0.473
  S54                        8.13       0.00       0.00       4.53       2.90        0.27     0.08   0.357
  S55                        8.13       0.00       0.00       3.55       3.68        0.60     0.18   0.453
  S56                        8.13       0.00       0.00       5.66       2.00        0.00     0.00   0.245
  S57                        8.13       0.00       0.00       2.97       4.16        0.04     0.01   0.512
  S58                        8.13       0.00       0.00       3.92       3.39        0.14     0.04   0.417
  S59                        8.13       0.00       0.00       6.88       1.00        0.03     0.01   0.123
  S60                        8.13       0.00       0.00       5.55       2.08        0.05     0.02   0.256
  S61                        8.13       0.00       0.00       7.06       0.87        0.01     0.00   0.107
  S62                        8.13       0.00       0.00       6.52       1.31        0.03     0.03   0.161
  S63                        6.35       0.00       0.00       5.23       0.84        0.01     0.01   0.133
  S64                        6.35       0.00       0.00       2.51       2.90        0.04     0.02   0.457
  S65                        6.35       0.00       0.00       4.01       1.76        0.30     0.09   0.277
  
  
  ****************************
  Subcatchment Washoff Summary
  ****************************
  
  --------------------------------------------------------------
                                 TSS            TP           TDP
  Subcatchment                    kg            kg            kg
  --------------------------------------------------------------
  S0                           0.448         0.000         0.000
  S1                         105.051         0.030         0.340
  S2                         298.087         0.112         0.461
  S3                          42.192         0.012         0.125
  S4                         160.629         0.048         0.316
  S6                          11.669         0.003         0.066
  S7                         331.112         0.916         1.075
  S8                           1.141         0.000         0.000
  S9                           1.306         0.000         0.000
  S10                         13.051         0.004         0.004
  S11                          1.320         0.000         0.000
  S12                          0.764         0.000         0.000
  S13                         62.692         0.017         0.276
  S14                         18.988         0.011         0.005
  S16                        380.429         0.037         0.059
  S17                        343.132         0.140         0.491
  S18                          1.336         0.000         0.000
  S19                         54.698         0.034         0.016
  S20                         22.165         0.009         0.002
  S21                       1181.574         0.271         0.857
  S22                          8.514         0.003         0.000
  S23                         25.449         0.028         0.020
  S24                         40.064         0.013         0.058
  S25                         20.271         0.020         0.014
  S27                         22.889         0.010         0.003
  S28                          0.000         0.000         0.000
  S29                          0.000         0.000         0.000
  S30                          0.009         0.000         0.000
  S31                          0.000         0.000         0.000
  S32                          5.838         0.006         0.004
  S33                         40.222         0.015         0.016
  S34                        386.209         0.803         0.424
  S35                         12.746         0.006         0.002
  S36                         16.084         0.017         0.011
  S37                         18.019         0.010         0.004
  S39                        290.975         0.171         0.295
  S40                         38.378         0.038         0.025
  S41                        298.495         0.104         0.352
  S42                        240.329         0.098         0.197
  S43                         26.946         0.030         0.021
  S44                        507.284         0.230         0.442
  S45                          1.924         0.001         0.000
  S47                        109.085         0.048         0.066
  S48                         12.487         0.005         0.001
  S49                        399.935         0.193         0.323
  S51                         12.646         0.015         0.011
  S52                        150.644         0.062         0.124
  S53                        275.099         0.094         0.329
  S54                        217.427         0.130         0.109
  S55                        350.833         0.189         0.244
  S56                          0.059         0.000         0.001
  S57                         12.097         0.011         0.007
  S58                        105.397         0.040         0.064
  S59                         64.573         0.024         0.047
  S60                         40.038         0.044         0.031
  S61                         21.346         0.012         0.007
  S62                         32.230         0.040         0.029
  S63                         16.187         0.016         0.031
  S64                         18.391         0.023         0.017
  S65                        400.710         0.187         0.323
  --------------------------------------------------------------
  System                    7271.611         4.382         7.744
  
  
  ******************
  Node Depth Summary
  ******************
  
  ---------------------------------------------------------------------------------
                                 Average  Maximum  Maximum  Time of Max    Reported
                                   Depth    Depth      HGL   Occurrence   Max Depth
  Node                 Type       Meters   Meters   Meters  days hr:min      Meters
  ---------------------------------------------------------------------------------
  FID1936              JUNCTION     0.16     0.40  1376.70     0  04:05        0.12
  FID1955              JUNCTION     0.17     0.34  1376.26     0  04:15        0.10
  FID1960              JUNCTION     0.16     0.28  1376.14     0  04:15        0.08
  FID1965              JUNCTION     0.15     0.26  1376.56     0  04:15        0.08
  FID1968              JUNCTION     0.14     0.21  1376.61     0  04:15        0.06
  FID2239              JUNCTION     0.15     0.29  1374.80     0  04:05        0.09
  FID2241              JUNCTION     0.13     0.20  1373.33     0  04:05        0.06
  FID2242              JUNCTION     0.14     0.22  1374.26     0  04:05        0.07
  FID2244              JUNCTION     0.13     0.19  1374.55     0  03:30        0.06
  FID2440              JUNCTION     0.46     0.74  1374.99     0  04:22        0.23
  FID2442              JUNCTION     0.00     0.00  1375.27     0  00:00        0.00
  FID2446              JUNCTION     0.17     0.56  1376.36     0  04:05        0.17
  FID2447              JUNCTION     0.16     0.46  1376.16     0  04:05        0.14
  FID2455              JUNCTION     0.39     0.80  1374.79     0  04:30        0.24
  FID2711              JUNCTION     0.13     0.24  1370.42     0  04:05        0.07
  FID2719              JUNCTION     0.17     0.53  1370.63     0  04:05        0.16
  FID2720              JUNCTION     0.17     0.38  1370.58     0  04:05        0.12
  FID2824              JUNCTION     0.13     0.18  1371.46     0  04:10        0.06
  FID2827              JUNCTION     0.14     0.23  1371.53     0  04:10        0.07
  FID2828              JUNCTION     0.14     0.23  1371.55     0  04:10        0.07
  FID2832              JUNCTION     0.17     0.31  1370.91     0  04:10        0.09
  FID2833              JUNCTION     0.22     0.48  1371.10     0  04:10        0.15
  FID2839              JUNCTION     0.19     0.35  1371.55     0  04:10        0.11
  FID2873              JUNCTION     0.16     0.29  1370.99     0  03:55        0.09
  FID2964              JUNCTION     0.19     0.34  1371.12     0  04:40        0.10
  FID2965              JUNCTION     0.49     0.86  1371.12     0  04:41        0.26
  FID4584              JUNCTION     0.14     0.30  1371.64     0  04:10        0.09
  FID5068              JUNCTION     0.13     0.20  1375.58     0  03:30        0.06
  FID5072              JUNCTION     0.56     0.86  1374.15     0  04:33        0.26
  FID5140              JUNCTION     0.16     0.25  1373.47     0  04:05        0.07
  FID5435              JUNCTION     0.16     0.25  1373.00     0  04:05        0.08
  FID5437              JUNCTION     0.13     0.18  1373.13     0  03:30        0.05
  FID5503              JUNCTION     0.12     0.16  1371.49     0  03:52        0.05
  FID5504              JUNCTION     0.16     0.25  1371.61     0  04:10        0.08
  FID5527              JUNCTION     0.15     0.21  1372.71     0  04:10        0.07
  FID5568              JUNCTION     0.54     0.86  1373.25     0  04:36        0.26
  FID5784              JUNCTION     0.55     0.87  1372.87     0  04:35        0.26
  FID5785              JUNCTION     0.14     0.25  1374.68     0  04:05        0.07
  AFID6926             JUNCTION     0.16     0.26  1370.06     0  04:15        0.08
  AFID7360             JUNCTION     0.54     0.93  1371.06     0  04:40        0.28
  AFID7363             JUNCTION     0.53     0.92  1371.09     0  04:40        0.28
  AFID7376             JUNCTION     0.20     0.41  1371.64     0  04:10        0.12
  AFID7377             JUNCTION     0.44     0.74  1371.42     0  04:41        0.23
  AFID7705             JUNCTION     0.55     0.68  1375.64     0  04:15        0.21
  AFID7706             JUNCTION     0.60     0.74  1375.65     0  04:15        0.22
  AFID7792             JUNCTION     0.18     0.39  1375.19     0  04:05        0.12
  AFID8223             JUNCTION     0.55     0.87  1372.87     0  04:35        0.26
  J1                   JUNCTION     0.78     0.82  1375.81     0  04:18        0.25
  FID4901              JUNCTION     0.51     0.62  1375.69     0  04:16        0.19
  J9                   JUNCTION     0.67     0.71  1375.80     0  04:18        0.22
  J11                  JUNCTION     0.51     0.56  1375.77     0  04:18        0.17
  J12                  JUNCTION     0.51     0.60  1375.71     0  04:17        0.18
  J13                  JUNCTION     0.51     0.61  1375.69     0  04:16        0.19
  FID4902              JUNCTION     0.53     0.63  1375.68     0  04:16        0.19
  J14                  JUNCTION     0.43     0.60  1375.52     0  04:06        0.18
  J15                  JUNCTION     0.40     0.64  1375.31     0  04:07        0.20
  J16                  JUNCTION     0.41     0.65  1375.29     0  04:08        0.20
  FID2449              JUNCTION     0.46     0.75  1375.06     0  04:23        0.23
  J17                  JUNCTION     0.39     0.80  1374.78     0  04:30        0.25
  J19                  JUNCTION     0.53     1.01  1374.56     0  04:34        0.31
  FID5069              JUNCTION     0.59     0.89  1374.15     0  04:33        0.27
  FID5139              JUNCTION     0.55     0.87  1373.22     0  04:35        0.26
  J24                  JUNCTION     0.55     0.87  1373.23     0  04:35        0.27
  FID4984              JUNCTION     0.57     0.89  1372.85     0  04:35        0.27
  FID2669              JUNCTION     0.40     0.73  1369.17     0  04:39        0.22
  FID2712              JUNCTION     0.43     0.77  1369.97     0  04:36        0.24
  FID2718              JUNCTION     0.43     0.79  1370.03     0  04:35        0.24
  FID2838              JUNCTION     0.62     1.01  1370.95     0  04:34        0.31
  FID2825              JUNCTION     0.67     1.08  1370.99     0  04:37        0.33
  FID2823              JUNCTION     0.71     1.14  1371.01     0  04:38        0.35
  FID5505              JUNCTION     0.61     1.01  1371.04     0  04:39        0.31
  FID5436              JUNCTION     0.56     0.86  1372.18     0  04:39        0.26
  FID5438              JUNCTION     0.49     0.80  1372.22     0  04:39        0.24
  J49                  JUNCTION     0.54     0.65  1375.68     0  04:16        0.20
  J50                  JUNCTION     0.58     0.70  1375.67     0  04:16        0.21
  J51                  JUNCTION     0.63     0.76  1375.65     0  04:15        0.23
  J52                  JUNCTION     0.64     0.77  1375.65     0  04:15        0.24
  J53                  JUNCTION     0.43     0.60  1375.52     0  04:06        0.18
  J54                  JUNCTION     0.43     0.59  1375.54     0  04:06        0.18
  J55                  JUNCTION     0.48     0.61  1375.63     0  04:15        0.18
  J56                  JUNCTION     0.46     0.58  1375.61     0  04:15        0.18
  J57                  JUNCTION     0.43     0.56  1375.59     0  04:21        0.17
  J58                  JUNCTION     0.43     0.58  1375.55     0  04:21        0.18
  FID1935              JUNCTION     0.43     0.61  1375.50     0  04:05        0.19
  J59                  JUNCTION     0.43     0.61  1375.48     0  04:06        0.19
  J60                  JUNCTION     0.42     0.61  1375.43     0  04:07        0.18
  J61                  JUNCTION     0.41     0.61  1375.37     0  04:08        0.18
  J62                  JUNCTION     0.40     0.61  1375.36     0  04:08        0.18
  J63                  JUNCTION     0.41     0.64  1375.33     0  04:08        0.19
  J64                  JUNCTION     0.40     0.64  1375.26     0  04:08        0.20
  J65                  JUNCTION     0.37     0.63  1375.21     0  04:09        0.19
  J66                  JUNCTION     0.46     0.74  1374.96     0  04:23        0.23
  J67                  JUNCTION     0.45     0.75  1374.90     0  04:24        0.23
  J68                  JUNCTION     0.44     0.77  1374.84     0  04:30        0.24
  J69                  JUNCTION     0.59     1.03  1374.76     0  04:31        0.31
  J70                  JUNCTION     0.58     1.02  1374.67     0  04:33        0.31
  J71                  JUNCTION     0.56     1.02  1374.61     0  04:34        0.31
  J72                  JUNCTION     0.57     0.87  1374.22     0  04:34        0.26
  J73                  JUNCTION     0.59     0.89  1374.11     0  04:34        0.27
  J74                  JUNCTION     0.59     0.89  1373.87     0  04:38        0.27
  J75                  JUNCTION     0.59     0.89  1373.73     0  04:39        0.27
  J76                  JUNCTION     0.55     0.87  1373.21     0  04:35        0.26
  J77                  JUNCTION     0.55     0.87  1373.08     0  04:33        0.27
  J78                  JUNCTION     0.55     0.87  1372.94     0  04:35        0.27
  J79                  JUNCTION     0.55     0.87  1372.88     0  04:35        0.26
  J80                  JUNCTION     0.47     0.77  1372.26     0  04:39        0.24
  J81                  JUNCTION     0.53     0.83  1371.82     0  04:44        0.25
  J82                  JUNCTION     0.52     0.82  1371.75     0  04:44        0.25
  J83                  JUNCTION     0.46     0.77  1371.57     0  04:44        0.24
  J84                  JUNCTION     0.42     0.70  1371.34     0  04:42        0.21
  J85                  JUNCTION     0.43     0.73  1371.25     0  04:42        0.22
  J86                  JUNCTION     0.45     0.79  1371.17     0  04:42        0.24
  J87                  JUNCTION     0.52     0.90  1371.09     0  04:40        0.28
  J88                  JUNCTION     0.59     1.00  1371.04     0  04:39        0.30
  J89                  JUNCTION     0.63     1.04  1371.03     0  04:39        0.32
  J90                  JUNCTION     0.59     0.98  1370.93     0  04:34        0.30
  J91                  JUNCTION     0.59     0.98  1370.87     0  04:35        0.30
  J92                  JUNCTION     0.59     0.98  1370.82     0  04:34        0.30
  J93                  JUNCTION     0.58     0.98  1370.70     0  04:33        0.30
  J94                  JUNCTION     0.58     0.98  1370.64     0  04:32        0.30
  J95                  JUNCTION     0.59     0.98  1370.62     0  04:32        0.30
  J96                  JUNCTION     0.58     0.97  1370.53     0  04:33        0.30
  J97                  JUNCTION     0.57     0.96  1370.46     0  04:33        0.29
  J98                  JUNCTION     0.56     0.95  1370.40     0  04:34        0.29
  J99                  JUNCTION     0.54     0.93  1370.33     0  04:35        0.28
  J100                 JUNCTION     0.53     0.91  1370.27     0  04:35        0.28
  J101                 JUNCTION     0.50     0.88  1370.20     0  04:36        0.27
  J102                 JUNCTION     0.43     0.79  1370.06     0  04:36        0.24
  J103                 JUNCTION     0.43     0.78  1370.01     0  04:36        0.24
  J104                 JUNCTION     0.42     0.76  1369.92     0  04:36        0.23
  J105                 JUNCTION     0.41     0.75  1369.87     0  04:36        0.23
  J106                 JUNCTION     0.40     0.72  1369.80     0  04:36        0.22
  J107                 JUNCTION     0.40     0.72  1369.66     0  04:37        0.22
  J108                 JUNCTION     0.40     0.72  1369.52     0  04:38        0.22
  J109                 JUNCTION     0.40     0.72  1369.41     0  04:38        0.22
  J110                 JUNCTION     0.40     0.72  1369.31     0  04:38        0.22
  J111                 JUNCTION     0.40     0.73  1369.21     0  04:39        0.22
  J112                 JUNCTION     0.40     0.73  1369.05     0  04:39        0.22
  J113                 JUNCTION     0.40     0.73  1368.96     0  04:39        0.22
  J114                 JUNCTION     0.40     0.73  1368.84     0  04:40        0.22
  J115                 JUNCTION     0.40     0.73  1368.78     0  04:40        0.22
  J116                 JUNCTION     0.40     0.73  1368.71     0  04:40        0.22
  J117                 JUNCTION     0.40     0.73  1368.61     0  04:41        0.22
  J118                 JUNCTION     0.40     0.72  1368.50     0  04:41        0.22
  J119                 JUNCTION     0.41     0.72  1368.43     0  04:41        0.22
  J120                 JUNCTION     0.42     0.72  1368.32     0  04:41        0.22
  FID2451              JUNCTION     0.45     0.73  1375.02     0  04:23        0.22
  J121                 JUNCTION     0.44     0.75  1371.49     0  04:43        0.23
  J122                 JUNCTION     0.44     0.74  1371.46     0  04:42        0.23
  FID3706              JUNCTION     0.59     0.98  1370.72     0  04:33        0.30
  FID2831              JUNCTION     0.59     0.98  1370.61     0  04:32        0.30
  FID2689              OUTFALL      0.25     0.44  1367.94     0  04:41        0.14
  
  
  *******************
  Node Inflow Summary
  *******************
  
  -------------------------------------------------------------------------------------------------
                                  Maximum  Maximum                  Lateral       Total        Flow
                                  Lateral    Total  Time of Max      Inflow      Inflow     Balance
                                   Inflow   Inflow   Occurrence      Volume      Volume       Error
  Node                 Type           CMS      CMS  days hr:min    10^6 ltr    10^6 ltr     Percent
  -------------------------------------------------------------------------------------------------
  FID1936              JUNCTION     0.199    0.199     0  04:05        0.25        0.25       0.067
  FID1955              JUNCTION     0.175    0.175     0  04:15       0.601       0.601       0.029
  FID1960              JUNCTION     0.080    0.080     0  04:15       0.274       0.274       0.063
  FID1965              JUNCTION     0.041    0.041     0  04:15       0.138       0.138       0.127
  FID1968              JUNCTION     0.012    0.012     0  04:15      0.0416      0.0416       0.421
  FID2239              JUNCTION     0.014    0.014     0  04:05      0.0434      0.0434       1.166
  FID2241              JUNCTION     0.000    0.013     0  04:05           0      0.0408       0.425
  FID2242              JUNCTION     0.013    0.013     0  04:05      0.0409      0.0409       0.444
  FID2244              JUNCTION     0.008    0.008     0  03:30      0.0159      0.0159       1.109
  FID2440              JUNCTION     0.000    1.233     0  04:09           0        15.3       0.277
  FID2442              JUNCTION     0.000    0.000     0  00:00           0           0       0.000 ltr
  FID2446              JUNCTION     0.146    0.146     0  04:05       0.177       0.177       1.002
  FID2447              JUNCTION     0.000    0.141     0  04:05           0       0.175      -0.456
  FID2455              JUNCTION     0.101    1.254     0  04:10       0.316        15.4       0.273
  FID2711              JUNCTION     0.000    0.041     0  04:05           0      0.0525       0.426
  FID2719              JUNCTION     0.165    0.165     0  04:05       0.245       0.245       0.250
  FID2720              JUNCTION     0.042    0.042     0  04:05      0.0527      0.0527       0.417
  FID2824              JUNCTION     0.000    0.004     0  04:10    0.000722      0.0108       1.588
  FID2827              JUNCTION     0.000    0.004     0  03:55    0.000818      0.0102       1.349
  FID2828              JUNCTION     0.003    0.003     0  04:10     0.00965     0.00965       2.675
  FID2832              JUNCTION     0.000    0.197     0  04:10           0       0.626       0.047
  FID2833              JUNCTION     0.198    0.198     0  04:10       0.626       0.626       0.041
  FID2839              JUNCTION     0.346    0.346     0  04:10        1.19        1.19       0.034
  FID2873              JUNCTION     0.026    0.026     0  04:10      0.0822      0.0822       0.810
  FID2964              JUNCTION     0.036    0.036     0  04:10       0.114       0.114       0.152
  FID2965              JUNCTION     0.000    1.362     0  04:43           0        15.6       0.376
  FID4584              JUNCTION     0.000    0.001     0  03:33           0    0.000748      23.751
  FID5068              JUNCTION     0.008    0.008     0  03:30      0.0195      0.0195       0.900
  FID5072              JUNCTION     0.105    1.227     0  04:30       0.319        15.4       0.246
  FID5140              JUNCTION     0.094    0.094     0  04:05       0.398       0.398       0.027
  FID5435              JUNCTION     0.075    0.075     0  04:05       0.322       0.322       0.056
  FID5437              JUNCTION     0.002    0.002     0  03:30     0.00532     0.00532       3.383
  FID5503              JUNCTION     0.000    0.000     0  03:37    0.000775    0.000775      28.745
  FID5504              JUNCTION     0.079    0.079     0  04:10       0.248       0.248       0.107
  FID5527              JUNCTION     0.017    0.017     0  04:10      0.0514      0.0514       0.342
  FID5568              JUNCTION     0.004    1.216     0  04:39     0.00762          15       0.879
  FID5784              JUNCTION     0.000    1.285     0  04:32           0        15.5       0.118
  FID5785              JUNCTION     0.000    0.014     0  04:05           0      0.0429       0.395
  AFID6926             JUNCTION     0.080    0.080     0  04:15       0.256       0.256       0.069
  AFID7360             JUNCTION     0.000    1.365     0  04:45    0.000466        15.5       0.271
  AFID7363             JUNCTION     0.000    1.364     0  04:45           0        15.6       0.131
  AFID7376             JUNCTION     0.211    0.211     0  04:10        0.68        0.68       0.006
  AFID7377             JUNCTION     0.000    1.352     0  04:40           0        15.7       0.137
  AFID7705             JUNCTION     0.000    0.726     0  04:15           0        14.1       0.307
  AFID7706             JUNCTION     0.000    0.652     0  04:17           0        13.8       0.292
  AFID7792             JUNCTION     0.216    0.216     0  04:05       0.688       0.688       0.026
  AFID8223             JUNCTION     0.000    1.280     0  04:33           0        15.5       0.027
  J1                   JUNCTION     0.668    0.668     0  04:15          21          21       0.173
  FID4901              JUNCTION     0.000    0.485     0  04:20           0        13.7       0.277
  J9                   JUNCTION     0.000    0.668     0  04:15           0          21       0.355
  J11                  JUNCTION     0.000    0.666     0  04:15           0        20.9       0.638
  J12                  JUNCTION     0.007    0.672     0  04:21      0.0255        20.8       0.698
  J13                  JUNCTION    -0.220    0.684     0  04:35       -7.13        20.7      -0.210
  FID4902              JUNCTION     0.000    0.493     0  04:20           0        13.7       0.436
  J14                  JUNCTION     0.350    0.867     0  04:05       0.536        14.2       0.228
  J15                  JUNCTION     0.446    1.174     0  04:05       0.747        14.9       0.188
  J16                  JUNCTION     0.009    1.160     0  04:05      0.0104        14.9       0.188
  FID2449              JUNCTION     0.001    1.078     0  04:09      0.0015        14.7       1.490
  J17                  JUNCTION     0.152    1.345     0  04:08       0.468        15.8       0.136
  J19                  JUNCTION     0.020    1.221     0  04:05      0.0407        15.6       1.538
  FID5069              JUNCTION     0.000    1.227     0  04:30           0        15.4       0.217
  FID5139              JUNCTION     0.000    1.251     0  04:36           0        15.3       0.067
  J24                  JUNCTION     0.017    1.221     0  04:41      0.0464          15       0.098
  FID4984              JUNCTION     0.000    1.290     0  04:32           0        15.5       0.985
  FID2669              JUNCTION     0.000    1.630     0  04:38           0        17.2       0.086
  FID2712              JUNCTION     0.000    1.601     0  04:35           0        17.2       0.103
  FID2718              JUNCTION     0.000    1.590     0  04:35           0        17.1       0.072
  FID2838              JUNCTION     0.000    1.460     0  04:30           0        16.7       0.216
  FID2825              JUNCTION     0.000    1.385     0  04:45           0        15.6       0.360
  FID2823              JUNCTION     0.000    1.382     0  04:45           0        15.6       0.607
  FID5505              JUNCTION     0.000    1.379     0  04:44           0        15.7       0.166
  FID5436              JUNCTION     0.000    1.315     0  04:35           0        15.6       1.049
  FID5438              JUNCTION     0.000    1.286     0  04:38           0        15.3       0.180
  J49                  JUNCTION     0.000    0.495     0  04:20           0        13.7       0.705
  J50                  JUNCTION     0.000    0.503     0  04:34    0.000307        13.6       1.215
  J51                  JUNCTION     0.000    0.521     0  04:34           0        13.4       0.960
  J52                  JUNCTION     0.000    0.535     0  04:34           0        13.3       0.283
  J53                  JUNCTION     0.000    0.738     0  04:15           0        13.7       0.259
  J54                  JUNCTION     0.000    0.734     0  04:15           0        13.8       0.383
  J55                  JUNCTION     0.000    0.726     0  04:15           0          14       0.356
  J56                  JUNCTION     0.000    0.726     0  04:15           0          14       0.387
  J57                  JUNCTION     0.000    0.727     0  04:15           0        13.9       0.489
  J58                  JUNCTION     0.002    0.731     0  04:16     0.00748        13.9       0.523
  FID1935              JUNCTION     0.000    1.046     0  04:05           0        14.5       0.292
  J59                  JUNCTION     0.000    1.020     0  04:05           0        14.4       0.418
  J60                  JUNCTION     0.009    0.980     0  04:05      0.0104        14.4       0.653
  J61                  JUNCTION     0.000    0.908     0  04:06           0        14.3       0.440
  J62                  JUNCTION     0.000    0.894     0  04:08           0        14.2       0.200
  J63                  JUNCTION     0.000    0.897     0  04:09           0        14.2       0.202
  J64                  JUNCTION     0.000    1.143     0  04:05           0        14.9       0.198
  J65                  JUNCTION     0.027    1.143     0  04:05      0.0334        14.9       1.158
  J66                  JUNCTION     0.000    1.228     0  04:10           0        15.3       0.348
  J67                  JUNCTION     0.000    1.220     0  04:10           0        15.2       0.515
  J68                  JUNCTION     0.011    1.209     0  04:11      0.0258        15.2       0.549
  J69                  JUNCTION     0.000    1.335     0  04:08           0        15.8       0.544
  J70                  JUNCTION     0.006    1.306     0  04:07       0.013        15.7       0.700
  J71                  JUNCTION     0.000    1.255     0  04:06           0        15.6       0.513
  J72                  JUNCTION     0.012    1.197     0  04:34       0.035        15.4       1.646
  J73                  JUNCTION     0.000    1.225     0  04:30           0        15.4       0.503
  J74                  JUNCTION     0.000    1.222     0  04:33           0        15.3       0.737
  J75                  JUNCTION     0.007    1.219     0  04:35      0.0135        15.2       1.139
  J76                  JUNCTION     0.000    1.251     0  04:36           0        15.3       0.271
  J77                  JUNCTION     0.093    1.285     0  04:30       0.297        15.6       0.494
  J78                  JUNCTION     0.000    1.281     0  04:32           0        15.5       0.369
  J79                  JUNCTION     0.000    1.280     0  04:33           0        15.5       0.134
  J80                  JUNCTION     0.013    1.289     0  04:35      0.0343        15.4       0.844
  J81                  JUNCTION     0.002    1.314     0  04:38     0.00599        15.5       1.503
  J82                  JUNCTION     0.000    1.309     0  04:43           0        15.2       0.600
  J83                  JUNCTION     0.000    1.308     0  04:45           0        15.1       0.472
  J84                  JUNCTION     0.000    1.352     0  04:40           0        15.7       0.245
  J85                  JUNCTION     0.000    1.352     0  04:41           0        15.7       0.458
  J86                  JUNCTION     0.000    1.352     0  04:43           0        15.6       0.481
  J87                  JUNCTION     0.003    1.364     0  04:44     0.00924        15.6       0.209
  J88                  JUNCTION     0.000    1.366     0  04:45           0        15.5       0.304
  J89                  JUNCTION     0.000    1.380     0  04:44           0        15.7       0.473
  J90                  JUNCTION     0.000    1.457     0  04:33           0        16.6       0.162
  J91                  JUNCTION     0.000    1.457     0  04:34           0        16.6       0.218
  J92                  JUNCTION     0.000    1.457     0  04:35    3.83e-06        16.6       0.278
  J93                  JUNCTION     0.000    1.467     0  04:36           0        16.6       0.153
  J94                  JUNCTION     0.000    1.468     0  04:36    6.87e-06        16.5       0.161
  J95                  JUNCTION     0.000    1.469     0  04:36           0        16.5       0.063
  J96                  JUNCTION     0.000    1.544     0  04:31           0        17.1       0.231
  J97                  JUNCTION     0.000    1.542     0  04:32           0        17.1       0.197
  J98                  JUNCTION     0.000    1.541     0  04:32           0          17       0.172
  J99                  JUNCTION     0.000    1.539     0  04:33           0          17       0.146
  J100                 JUNCTION     0.000    1.538     0  04:33           0          17       0.123
  J101                 JUNCTION     0.000    1.537     0  04:33           0        16.9       0.145
  J102                 JUNCTION     0.000    1.535     0  04:34           0        16.9       0.113
  J103                 JUNCTION     0.000    1.589     0  04:35           0        17.1       0.085
  J104                 JUNCTION     0.000    1.600     0  04:35           0        17.2       0.110
  J105                 JUNCTION     0.000    1.598     0  04:35           0        17.1       0.136
  J106                 JUNCTION     0.000    1.596     0  04:36           0        17.1       0.153
  J107                 JUNCTION     0.000    1.595     0  04:36           0        17.1       0.157
  J108                 JUNCTION     0.000    1.593     0  04:37    2.39e-05        17.1       0.142
  J109                 JUNCTION     0.000    1.592     0  04:37           0          17       0.121
  J110                 JUNCTION     0.000    1.591     0  04:38           0          17       0.120
  J111                 JUNCTION     0.000    1.590     0  04:38    0.000209          17       0.085
  J112                 JUNCTION     0.000    1.630     0  04:38           0        17.2       0.121
  J113                 JUNCTION     0.000    1.629     0  04:39           0        17.2       0.118
  J114                 JUNCTION     0.000    1.628     0  04:39           0        17.2       0.099
  J115                 JUNCTION     0.000    1.628     0  04:39           0        17.2       0.075
  J116                 JUNCTION     0.000    1.627     0  04:40    6.74e-06        17.1       0.098
  J117                 JUNCTION     0.000    1.627     0  04:40           0        17.1       0.120
  J118                 JUNCTION     0.000    1.626     0  04:40           0        17.1       0.107
  J119                 JUNCTION     0.000    1.626     0  04:41           0        17.1       0.105
  J120                 JUNCTION     0.000    1.626     0  04:41           0        17.1       0.130
  FID2451              JUNCTION     0.000    1.071     0  04:10           0        14.7       0.277
  J121                 JUNCTION     0.006    1.309     0  04:46      0.0181        15.1       0.138
  J122                 JUNCTION     0.000    1.309     0  04:46    0.000853        15.1       0.119
  FID3706              JUNCTION     0.000    1.466     0  04:35           0        16.6       0.212
  FID2831              JUNCTION     0.000    1.545     0  04:31           0        17.1       0.142
  FID2689              OUTFALL      0.000    1.626     0  04:41           0        17.1       0.000
  
  
  **********************
  Node Surcharge Summary
  **********************
  
  Surcharging occurs when water rises above the top of the highest conduit.
  ---------------------------------------------------------------------
                                               Max. Height   Min. Depth
                                   Hours       Above Crown    Below Rim
  Node                 Type      Surcharged         Meters       Meters
  ---------------------------------------------------------------------
  FID2446              JUNCTION        0.05          0.029        0.000
  J19                  JUNCTION        0.95          0.150        0.000
  J70                  JUNCTION        0.91          0.163        0.000
  J71                  JUNCTION        0.93          0.156        0.000
  
  
  *********************
  Node Flooding Summary
  *********************
  
  Flooding refers to all water that overflows a node, whether it ponds or not.
  --------------------------------------------------------------------------
                                                             Total   Maximum
                                 Maximum   Time of Max       Flood    Ponded
                        Hours       Rate    Occurrence      Volume     Depth
  Node                 Flooded       CMS   days hr:min    10^6 ltr    Meters
  --------------------------------------------------------------------------
  FID2446                 0.05     0.005      0  03:35       0.001     0.029
  J19                     0.95     0.142      0  04:09       0.091     0.150
  J70                     0.91     0.066      0  04:10       0.057     0.163
  J71                     0.93     0.058      0  04:09       0.044     0.156
  
  
  ***********************
  Outfall Loading Summary
  ***********************
  
  -----------------------------------------------------------------------------------------------------
                         Flow       Avg       Max       Total         Total         Total         Total
                         Freq      Flow      Flow      Volume           TSS            TP           TDP
  Outfall Node           Pcnt       CMS       CMS    10^6 ltr            kg            kg            kg
  -----------------------------------------------------------------------------------------------------
  FID2689               73.12     0.970     1.626      17.051      6459.667         4.516         7.611
  -----------------------------------------------------------------------------------------------------
  System                73.12     0.970     1.626      17.051      6459.667         4.516         7.611
  
  
  ********************
  Link Flow Summary
  ********************
  
  -----------------------------------------------------------------------------
                                 Maximum  Time of Max   Maximum    Max/    Max/
                                  |Flow|   Occurrence   |Veloc|    Full    Full
  Link                 Type          CMS  days hr:min     m/sec    Flow   Depth
  -----------------------------------------------------------------------------
  FID1123              CONDUIT     0.026     0  04:10      0.84    0.43    0.72
  FID1139              CONDUIT     0.157     0  04:05      1.52    1.10    0.87
  FID1148              CONDUIT     0.197     0  04:10      1.09    0.48    0.32
  FID1149              CONDUIT     0.197     0  04:10      2.28    0.07    0.36
  FID3364              CONDUIT     0.210     0  04:10      0.94    0.17    0.43
  FID3671              CONDUIT     0.012     0  04:15      1.18    0.09    0.20
  FID3672              CONDUIT     0.041     0  04:15      1.66    0.29    0.37
  FID3762              CONDUIT     0.080     0  04:15      1.46    0.24    0.59
  FID3765              CONDUIT     0.175     0  04:15      2.29    0.48    0.70
  FID4112              CONDUIT     0.198     0  04:05      1.81    0.34    0.40
  FID4186              CONDUIT     0.013     0  04:05      1.01    0.06    0.17
  FID4187              CONDUIT     0.013     0  04:05      1.59    0.03    0.12
  FID4201              CONDUIT     0.141     0  04:05      1.30    1.42    0.91
  FID4202              CONDUIT     0.140     0  04:05      1.49    1.00    0.77
  FID4203              CONDUIT     0.000     0  00:00      0.00    0.00    0.31
  FID4299              CONDUIT     0.008     0  03:30      1.00    0.03    0.12
  FID4372              CONDUIT     0.094     0  04:05      0.66    0.02    0.37
  FID4498              CONDUIT     0.036     0  04:10      0.32    0.17    0.70
  FID4806              CONDUIT     0.075     0  04:05      1.96    0.02    0.11
  FID4807              CONDUIT     0.002     0  03:30      0.76    0.01    0.08
  FID4882              CONDUIT     0.000     0  03:52      0.04    0.00    0.52
  FID4884              CONDUIT     0.079     0  04:10      1.97    0.03    0.17
  FID4914              CONDUIT     0.017     0  04:10      0.24    0.06    0.58
  FID4915              CONDUIT     0.003     0  04:10      0.25    0.09    0.21
  FID4916              CONDUIT     0.004     0  04:10      0.30    0.09    0.16
  FID4917              CONDUIT     0.004     0  04:10      0.86    0.01    0.54
  FID5307              CONDUIT     0.014     0  04:05      0.48    0.25    0.31
  FID5308              CONDUIT     0.008     0  03:30      1.27    0.04    0.13
  FID5312              CONDUIT     0.014     0  04:05      0.65    0.08    0.19
  FID5865              CONDUIT     0.346     0  04:10      3.54    0.15    0.37
  C9                   CHANNEL     0.668     0  04:15      0.58    0.10    0.54
  C12                  CHANNEL     0.669     0  04:35      0.39    0.40    0.67
  C13                  CHANNEL     0.684     0  04:35      0.53    0.41    0.70
  C14                  CHANNEL     0.469     0  04:35      0.52    0.28    0.71
  C52                  CONDUIT     0.215     0  04:05      1.20    0.33    0.66
  C130                 CONDUIT     0.041     0  04:05      0.66    0.74    0.40
  C131                 CONDUIT     0.041     0  04:05      1.75    0.08    0.47
  C139                 CONDUIT     0.001     0  03:33      0.08    0.02    0.53
  C191                 CHANNEL     0.495     0  04:20      0.40    0.30    0.75
  C193                 CHANNEL     0.521     0  04:34      0.31    0.31    0.85
  C194                 CHANNEL     0.535     0  04:34      0.26    0.32    0.89
  C195                 CHANNEL     0.539     0  04:34      0.30    0.14    0.71
  C196                 CONDUIT     0.486     0  04:20      0.38    0.48    0.79
  C197                 CONDUIT     0.654     0  04:17      0.21    0.42    0.98
  C198                 CHANNEL     0.726     0  04:15      0.26    0.19    0.61
  C199                 CHANNEL     0.726     0  04:15      0.26    4.31    0.71
  C200                 CHANNEL     0.727     0  04:15      0.28    3.90    0.69
  C201                 CHANNEL     0.729     0  04:16      0.27    0.29    0.57
  C202                 CHANNEL     0.734     0  04:15      0.27    0.30    0.58
  C203                 CHANNEL     0.738     0  04:15      0.27    0.30    0.59
  C204                 CHANNEL     0.742     0  04:15      0.39    0.30    0.60
  C205                 CONDUIT     0.848     0  04:05      0.29    0.80    0.74
  C206                 CHANNEL     1.020     0  04:05      0.35    0.41    0.61
  C207                 CHANNEL     0.974     0  04:05      0.33    0.39    0.61
  C208                 CHANNEL     0.908     0  04:06      0.31    0.37    0.61
  C209                 CHANNEL     0.894     0  04:08      0.31    0.36    0.61
  C210                 CHANNEL     0.897     0  04:09      0.38    0.37    0.71
  C211                 CHANNEL     0.901     0  04:09      0.37    0.44    0.65
  C212                 CONDUIT     1.152     0  04:05      0.38    0.91    0.78
  C213                 CHANNEL     1.143     0  04:05      0.47    0.56    0.66
  C214                 CHANNEL     1.125     0  04:06      0.48    0.55    0.65
  C215                 CONDUIT     1.078     0  04:09      0.33    0.85    0.83
  C216                 CONDUIT     1.057     0  04:11      0.41    1.07    0.69
  C217                 CONDUIT     1.068     0  04:11      0.34    0.58    0.54
  C218                 CHANNEL     1.228     0  04:10      0.43    0.60    0.76
  C219                 CHANNEL     1.220     0  04:10      0.43    0.60    0.76
  C220                 CHANNEL     1.205     0  04:11      0.43    0.59    0.78
  C221                 CHANNEL     1.183     0  04:11      0.43    0.58    0.80
  C222                 CONDUIT     1.231     0  04:10      0.43    1.12    0.97
  C223                 CHANNEL     1.335     0  04:08      0.46    0.23    0.81
  C224                 CHANNEL     1.303     0  04:07      0.42    1.15    1.00
  C225                 CHANNEL     1.255     0  04:06      0.42    1.11    1.00
  C226                 CHANNEL     1.214     0  04:23      0.45    1.07    1.00
  C227                 CONDUIT     1.194     0  04:35      0.34    1.32    1.00
  C228                 CHANNEL     1.198     0  04:36      0.52    0.67    0.80
  C229                 CONDUIT     1.224     0  04:30      0.27    0.29    0.59
  C230                 CHANNEL     1.225     0  04:30      0.52    0.68    0.82
  C231                 CHANNEL     1.222     0  04:33      0.52    0.68    0.82
  C232                 CHANNEL     1.219     0  04:35      0.51    0.68    0.82
  C233                 CHANNEL     1.216     0  04:39      0.52    0.68    0.81
  C234                 CONDUIT     1.219     0  04:41      0.41    0.68    0.63
  C235                 CHANNEL     1.221     0  04:41      0.53    0.68    0.81
  C236                 CHANNEL     1.251     0  04:36      0.51    0.81    0.90
  C237                 CHANNEL     1.252     0  04:37      0.51    0.81    0.90
  C238                 CHANNEL     1.281     0  04:32      0.52    0.83    0.90
  C239                 CHANNEL     1.280     0  04:33      0.52    0.83    0.90
  C240                 CHANNEL     1.280     0  04:34      0.52    0.81    0.90
  C241                 CHANNEL     1.280     0  04:33      0.60    0.83    0.90
  C242                 CONDUIT     1.285     0  04:33      0.40    0.61    0.72
  C243                 CHANNEL     1.288     0  04:36      0.56    0.84    0.86
  C244                 CHANNEL     1.286     0  04:38      0.76    0.29    0.50
  C245                 CONDUIT     1.286     0  04:39      0.49    0.48    0.65
  C246                 CHANNEL     1.312     0  04:39      0.45    0.57    0.74
  C247                 CHANNEL     1.309     0  04:43      0.46    0.57    0.72
  C248                 CHANNEL     1.308     0  04:45      0.48    0.57    0.69
  C249                 CHANNEL     1.309     0  04:46      2.16    0.72    0.72
  C250                 CONDUIT     1.309     0  04:46      0.56    0.65    0.58
  C251                 CONDUIT     1.310     0  04:46      0.56    0.65    0.58
  C252                 CHANNEL     1.352     0  04:40      4.19    0.74    0.68
  C253                 CHANNEL     1.352     0  04:41      1.63    0.42    0.68
  C254                 CHANNEL     1.352     0  04:43      1.50    0.42    0.72
  C255                 CHANNEL     1.353     0  04:44      1.29    0.42    0.78
  C256                 CHANNEL     1.364     0  04:44      2.74    0.42    0.83
  C257                 CHANNEL     1.364     0  04:45      1.91    0.42    0.86
  C258                 CONDUIT     1.365     0  04:45      0.47    0.68    0.72
  C259                 CHANNEL     1.366     0  04:45      0.76    0.42    0.91
  C260                 CHANNEL     1.368     0  04:46      0.38    0.42    0.95
  C261                 CHANNEL     1.380     0  04:44      2.15    0.43    0.97
  C262                 CHANNEL     1.382     0  04:45      0.29    0.43    0.99
  C263                 CHANNEL     1.384     0  04:45      0.37    0.44    0.70
  C264                 CONDUIT     1.386     0  04:46      0.44    0.98    0.76
  C265                 CHANNEL     1.457     0  04:33      0.45    0.46    0.63
  C266                 CHANNEL     1.457     0  04:34      0.47    0.39    0.68
  C267                 CHANNEL     1.457     0  04:35      0.47    0.39    0.68
  C268                 CHANNEL     1.458     0  04:36      0.47    0.39    0.69
  C269                 CHANNEL     1.467     0  04:36      0.48    0.39    0.69
  C270                 CHANNEL     1.468     0  04:36      0.48    0.39    0.69
  C271                 CHANNEL     1.469     0  04:36      0.48    0.39    0.69
  C272                 CHANNEL     1.470     0  04:37      0.48    0.39    0.69
  C273                 CHANNEL     1.544     0  04:31      0.51    0.41    0.68
  C274                 CHANNEL     1.542     0  04:32      0.51    0.41    0.68
  C275                 CHANNEL     1.541     0  04:32      0.52    0.41    0.67
  C276                 CHANNEL     1.539     0  04:33      0.54    0.41    0.66
  C277                 CHANNEL     1.538     0  04:33      0.56    0.41    0.64
  C278                 CHANNEL     1.537     0  04:33      0.59    0.41    0.63
  C279                 CHANNEL     1.535     0  04:34      0.68    0.41    0.58
  C280                 CHANNEL     1.536     0  04:37      0.56    0.71    0.80
  C281                 CHANNEL     1.589     0  04:35      0.57    0.74    0.80
  C282                 CHANNEL     1.587     0  04:35      0.58    0.73    0.79
  C283                 CHANNEL     1.600     0  04:35      0.59    0.74    0.78
  C284                 CHANNEL     1.598     0  04:35      0.60    0.74    0.77
  C285                 CHANNEL     1.596     0  04:36      0.63    0.74    0.75
  C286                 CHANNEL     1.595     0  04:36      0.70    0.53    0.73
  C287                 CHANNEL     1.593     0  04:37      0.70    0.53    0.73
  C288                 CHANNEL     1.592     0  04:37      0.70    0.53    0.74
  C289                 CHANNEL     1.591     0  04:38      0.69    0.53    0.74
  C290                 CHANNEL     1.590     0  04:38      0.69    0.53    0.74
  C291                 CHANNEL     1.590     0  04:38      0.69    0.52    0.74
  C292                 CHANNEL     1.630     0  04:38      0.70    0.54    0.74
  C293                 CHANNEL     1.629     0  04:39      0.70    0.54    0.74
  C294                 CHANNEL     1.628     0  04:39      0.70    0.54    0.74
  C295                 CHANNEL     1.628     0  04:39      0.70    0.54    0.74
  C296                 CHANNEL     1.627     0  04:40      0.70    0.54    0.74
  C297                 CHANNEL     1.627     0  04:40      0.70    0.54    0.74
  C298                 CHANNEL     1.626     0  04:40      0.71    0.54    0.74
  C299                 CHANNEL     1.626     0  04:41      0.71    0.54    0.74
  C300                 CHANNEL     1.626     0  04:41      0.71    0.54    0.73
  C301                 CHANNEL     1.626     0  04:41      1.19    0.39    0.45
  C302                 CHANNEL     0.666     0  04:15      0.50    0.14    0.50
  C303                 CHANNEL     0.503     0  04:34      0.36    0.30    0.79
  C353                 CONDUIT     0.080     0  04:15      1.94    0.03    0.11
  
  
  ***************************
  Flow Classification Summary
  ***************************
  
  -------------------------------------------------------------------------------------
                      Adjusted    ---------- Fraction of Time in Flow Class ---------- 
                       /Actual         Up    Down  Sub   Sup   Up    Down  Norm  Inlet 
  Conduit               Length    Dry  Dry   Dry   Crit  Crit  Crit  Crit  Ltd   Ctrl  
  -------------------------------------------------------------------------------------
  FID1123                 1.00   0.15  0.00  0.00  0.46  0.00  0.00  0.39  0.33  0.00
  FID1139                 1.00   0.13  0.00  0.00  0.33  0.00  0.00  0.53  0.23  0.00
  FID1148                 1.00   0.11  0.00  0.00  0.47  0.00  0.00  0.42  0.00  0.00
  FID1149                 1.00   0.12  0.00  0.00  0.73  0.03  0.00  0.12  0.59  0.00
  FID3364                 1.00   0.11  0.00  0.00  0.83  0.00  0.00  0.06  0.65  0.00
  FID3671                 1.00   0.17  0.00  0.00  0.00  0.00  0.00  0.83  0.00  0.00
  FID3672                 1.00   0.15  0.00  0.00  0.00  0.00  0.00  0.85  0.00  0.00
  FID3762                 1.00   0.02  0.13  0.00  0.82  0.04  0.00  0.00  0.67  0.00
  FID3765                 1.00   0.01  0.13  0.00  0.71  0.15  0.00  0.00  0.67  0.00
  FID4112                 1.00   0.13  0.00  0.00  0.00  0.00  0.00  0.87  0.00  0.00
  FID4186                 1.00   0.19  0.00  0.00  0.24  0.25  0.00  0.32  0.00  0.00
  FID4187                 1.00   0.20  0.00  0.00  0.00  0.00  0.00  0.80  0.00  0.00
  FID4201                 1.00   0.13  0.00  0.00  0.78  0.00  0.00  0.09  0.38  0.00
  FID4202                 1.00   0.15  0.00  0.00  0.00  0.00  0.00  0.85  0.00  0.00
  FID4203                 1.00   0.14  0.86  0.00  0.00  0.00  0.00  0.00  0.00  0.00
  FID4299                 1.00   0.19  0.00  0.00  0.00  0.00  0.00  0.81  0.00  0.00
  FID4372                 1.00   0.08  0.05  0.00  0.86  0.00  0.00  0.00  0.68  0.00
  FID4498                 1.00   0.15  0.00  0.00  0.81  0.00  0.00  0.04  0.44  0.00
  FID4806                 1.00   0.14  0.00  0.00  0.00  0.00  0.00  0.86  0.00  0.00
  FID4807                 1.00   0.21  0.00  0.00  0.00  0.00  0.00  0.79  0.00  0.00
  FID4882                 1.00   0.22  0.47  0.00  0.31  0.00  0.00  0.00  0.60  0.00
  FID4884                 1.00   0.12  0.00  0.00  0.32  0.05  0.00  0.51  0.26  0.00
  FID4914                 1.00   0.14  0.01  0.00  0.85  0.00  0.00  0.00  0.66  0.00
  FID4915                 1.00   0.20  0.00  0.00  0.79  0.00  0.00  0.01  0.49  0.00
  FID4916                 1.00   0.21  0.00  0.00  0.61  0.00  0.00  0.18  0.00  0.00
  FID4917                 1.00   0.22  0.00  0.00  0.76  0.00  0.00  0.02  0.60  0.00
  FID5307                 1.00   0.19  0.00  0.00  0.78  0.00  0.00  0.03  0.36  0.00
  FID5308                 1.00   0.19  0.00  0.00  0.00  0.00  0.00  0.81  0.00  0.00
  FID5312                 1.00   0.20  0.00  0.00  0.00  0.00  0.00  0.80  0.00  0.00
  FID5865                 1.00   0.10  0.00  0.00  0.41  0.09  0.00  0.40  0.36  0.00
  C9                      1.00   0.00  0.00  0.00  1.00  0.00  0.00  0.00  0.00  0.00
  C12                     1.00   0.00  0.00  0.00  1.00  0.00  0.00  0.00  0.00  0.00
  C13                     1.00   0.00  0.00  0.00  1.00  0.00  0.00  0.00  0.00  0.00
  C14                     1.00   0.00  0.00  0.00  1.00  0.00  0.00  0.00  0.00  0.00
  C52                     1.00   0.04  0.10  0.00  0.86  0.00  0.00  0.00  0.68  0.00
  C130                    1.00   0.17  0.00  0.00  0.55  0.00  0.00  0.27  0.00  0.00
  C131                    1.00   0.20  0.00  0.00  0.57  0.01  0.00  0.22  0.43  0.00
  C139                    1.00   0.11  0.49  0.00  0.39  0.00  0.01  0.00  0.48  0.00
  C191                    1.00   0.00  0.00  0.00  1.00  0.00  0.00  0.00  0.00  0.00
  C193                    1.00   0.00  0.00  0.00  1.00  0.00  0.00  0.00  0.00  0.00
  C194                    1.00   0.01  0.00  0.00  0.99  0.00  0.00  0.00  0.00  0.00
  C195                    1.00   0.01  0.00  0.00  0.99  0.00  0.00  0.00  0.00  0.00
  C196                    1.00   0.00  0.00  0.00  1.00  0.00  0.00  0.00  0.00  0.00
  C197                    1.00   0.01  0.00  0.00  0.99  0.00  0.00  0.00  0.00  0.00
  C198                    1.00   0.01  0.00  0.00  0.99  0.00  0.00  0.00  0.00  0.00
  C199                    1.00   0.01  0.00  0.00  0.99  0.00  0.00  0.00  0.00  0.00
  C200                    1.00   0.01  0.00  0.00  0.99  0.00  0.00  0.00  0.00  0.00
  C201                    1.00   0.01  0.00  0.00  0.99  0.00  0.00  0.00  0.00  0.00
  C202                    1.00   0.01  0.00  0.00  0.99  0.00  0.00  0.00  0.00  0.00
  C203                    1.00   0.02  0.00  0.00  0.98  0.00  0.00  0.00  0.00  0.00
  C204                    1.00   0.02  0.00  0.00  0.98  0.00  0.00  0.00  0.00  0.00
  C205                    1.00   0.02  0.00  0.00  0.98  0.00  0.00  0.00  0.00  0.00
  C206                    1.00   0.02  0.00  0.00  0.98  0.00  0.00  0.00  0.00  0.00
  C207                    1.00   0.02  0.00  0.00  0.98  0.00  0.00  0.00  0.00  0.00
  C208                    1.00   0.02  0.00  0.00  0.98  0.00  0.00  0.00  0.00  0.00
  C209                    1.00   0.02  0.00  0.00  0.98  0.00  0.00  0.00  0.00  0.00
  C210                    1.00   0.03  0.00  0.00  0.97  0.00  0.00  0.00  0.00  0.00
  C211                    1.00   0.03  0.00  0.00  0.97  0.00  0.00  0.00  0.00  0.00
  C212                    1.00   0.03  0.00  0.00  0.97  0.00  0.00  0.00  0.00  0.00
  C213                    1.00   0.03  0.00  0.00  0.97  0.00  0.00  0.00  0.00  0.00
  C214                    1.00   0.03  0.00  0.00  0.97  0.00  0.00  0.00  0.00  0.00
  C215                    1.00   0.03  0.00  0.00  0.97  0.00  0.00  0.00  0.20  0.00
  C216                    1.00   0.03  0.00  0.00  0.97  0.00  0.00  0.00  0.00  0.00
  C217                    1.00   0.03  0.00  0.00  0.97  0.00  0.00  0.00  0.00  0.00
  C218                    1.00   0.03  0.00  0.00  0.97  0.00  0.00  0.00  0.00  0.00
  C219                    1.00   0.04  0.00  0.00  0.96  0.00  0.00  0.00  0.00  0.00
  C220                    1.00   0.04  0.00  0.00  0.96  0.00  0.00  0.00  0.00  0.00
  C221                    1.00   0.05  0.00  0.00  0.95  0.00  0.00  0.00  0.00  0.00
  C222                    1.00   0.05  0.00  0.00  0.95  0.00  0.00  0.00  0.00  0.00
  C223                    1.00   0.05  0.00  0.00  0.95  0.00  0.00  0.00  0.01  0.00
  C224                    1.00   0.05  0.00  0.00  0.95  0.00  0.00  0.00  0.00  0.00
  C225                    1.00   0.05  0.00  0.00  0.95  0.00  0.00  0.00  0.00  0.00
  C226                    1.00   0.05  0.00  0.00  0.95  0.00  0.00  0.00  0.00  0.00
  C227                    1.00   0.06  0.00  0.00  0.94  0.00  0.00  0.00  0.00  0.00
  C228                    1.00   0.06  0.00  0.00  0.94  0.00  0.00  0.00  0.00  0.00
  C229                    1.00   0.06  0.00  0.00  0.94  0.00  0.00  0.00  0.00  0.00
  C230                    1.00   0.07  0.00  0.00  0.93  0.00  0.00  0.00  0.00  0.00
  C231                    1.00   0.07  0.00  0.00  0.93  0.00  0.00  0.00  0.00  0.00
  C232                    1.00   0.07  0.00  0.00  0.93  0.00  0.00  0.00  0.00  0.00
  C233                    1.00   0.07  0.00  0.00  0.93  0.00  0.00  0.00  0.00  0.00
  C234                    1.00   0.08  0.00  0.00  0.92  0.00  0.00  0.00  0.00  0.00
  C235                    1.00   0.08  0.00  0.00  0.92  0.00  0.00  0.00  0.00  0.00
  C236                    1.00   0.08  0.00  0.00  0.92  0.00  0.00  0.00  0.00  0.00
  C237                    1.00   0.08  0.00  0.00  0.92  0.00  0.00  0.00  0.00  0.00
  C238                    1.00   0.08  0.00  0.00  0.92  0.00  0.00  0.00  0.00  0.00
  C239                    1.00   0.08  0.00  0.00  0.92  0.00  0.00  0.00  0.00  0.00
  C240                    1.00   0.09  0.00  0.00  0.91  0.00  0.00  0.00  0.00  0.00
  C241                    1.00   0.09  0.00  0.00  0.91  0.00  0.00  0.00  0.00  0.00
  C242                    1.00   0.09  0.00  0.00  0.91  0.00  0.00  0.00  0.00  0.00
  C243                    1.00   0.09  0.00  0.00  0.91  0.00  0.00  0.00  0.00  0.00
  C244                    1.00   0.09  0.00  0.00  0.91  0.00  0.00  0.00  0.00  0.00
  C245                    1.00   0.10  0.00  0.00  0.90  0.00  0.00  0.00  0.00  0.00
  C246                    1.00   0.10  0.01  0.00  0.89  0.00  0.00  0.00  0.11  0.00
  C247                    1.00   0.10  0.00  0.00  0.90  0.00  0.00  0.00  0.00  0.00
  C248                    1.00   0.12  0.00  0.00  0.88  0.00  0.00  0.00  0.00  0.00
  C249                    1.00   0.10  0.04  0.00  0.86  0.00  0.00  0.00  0.01  0.00
  C250                    1.00   0.10  0.00  0.00  0.90  0.00  0.00  0.00  0.00  0.00
  C251                    1.00   0.11  0.00  0.00  0.89  0.00  0.00  0.00  0.05  0.00
  C252                    1.00   0.11  0.00  0.00  0.88  0.01  0.00  0.00  0.00  0.00
  C253                    1.00   0.12  0.00  0.00  0.88  0.00  0.00  0.00  0.00  0.00
  C254                    1.00   0.15  0.00  0.00  0.84  0.00  0.00  0.00  0.00  0.00
  C255                    1.00   0.15  0.02  0.00  0.83  0.00  0.00  0.00  0.00  0.00
  C256                    1.00   0.10  0.05  0.00  0.85  0.00  0.00  0.00  0.02  0.00
  C257                    1.00   0.10  0.00  0.00  0.90  0.00  0.00  0.00  0.00  0.00
  C258                    1.00   0.10  0.02  0.00  0.88  0.00  0.00  0.00  0.03  0.00
  C259                    1.00   0.10  0.00  0.00  0.90  0.00  0.00  0.00  0.04  0.00
  C260                    1.00   0.12  0.03  0.00  0.85  0.00  0.00  0.00  0.00  0.00
  C261                    1.00   0.12  0.00  0.00  0.87  0.01  0.00  0.00  0.00  0.00
  C262                    1.00   0.12  0.01  0.00  0.87  0.00  0.00  0.00  0.07  0.00
  C263                    1.00   0.11  0.00  0.00  0.89  0.00  0.00  0.00  0.00  0.00
  C264                    1.00   0.10  0.00  0.00  0.90  0.00  0.00  0.00  0.00  0.00
  C265                    1.00   0.10  0.00  0.00  0.89  0.00  0.00  0.00  0.00  0.00
  C266                    1.00   0.11  0.00  0.00  0.89  0.00  0.00  0.00  0.00  0.00
  C267                    1.00   0.16  0.00  0.00  0.84  0.00  0.00  0.00  0.00  0.00
  C268                    1.00   0.15  0.03  0.00  0.82  0.00  0.00  0.00  0.02  0.00
  C269                    1.00   0.15  0.00  0.00  0.85  0.00  0.00  0.00  0.00  0.00
  C270                    1.00   0.16  0.01  0.00  0.83  0.00  0.00  0.00  0.03  0.00
  C271                    1.00   0.13  0.03  0.00  0.84  0.00  0.00  0.00  0.00  0.00
  C272                    1.00   0.12  0.01  0.00  0.87  0.00  0.00  0.00  0.00  0.00
  C273                    1.00   0.12  0.00  0.00  0.88  0.00  0.00  0.00  0.00  0.00
  C274                    1.00   0.13  0.00  0.00  0.87  0.00  0.00  0.00  0.00  0.00
  C275                    1.00   0.16  0.00  0.00  0.84  0.00  0.00  0.00  0.00  0.00
  C276                    1.00   0.20  0.00  0.00  0.80  0.00  0.00  0.00  0.00  0.00
  C277                    1.00   0.22  0.00  0.00  0.78  0.00  0.00  0.00  0.00  0.00
  C278                    1.00   0.23  0.00  0.00  0.77  0.00  0.00  0.00  0.00  0.00
  C279                    1.00   0.19  0.04  0.00  0.77  0.00  0.00  0.00  0.00  0.00
  C280                    1.00   0.13  0.06  0.00  0.81  0.00  0.00  0.00  0.01  0.00
  C281                    1.00   0.13  0.00  0.00  0.87  0.00  0.00  0.00  0.03  0.00
  C282                    1.00   0.14  0.00  0.00  0.86  0.00  0.00  0.00  0.01  0.00
  C283                    1.00   0.15  0.00  0.00  0.85  0.00  0.00  0.00  0.00  0.00
  C284                    1.00   0.17  0.00  0.00  0.83  0.00  0.00  0.00  0.00  0.00
  C285                    1.00   0.20  0.00  0.00  0.80  0.00  0.00  0.00  0.00  0.00
  C286                    1.00   0.22  0.00  0.00  0.78  0.00  0.00  0.00  0.00  0.00
  C287                    1.00   0.13  0.10  0.00  0.77  0.00  0.00  0.00  0.00  0.00
  C288                    1.00   0.13  0.00  0.00  0.87  0.00  0.00  0.00  0.00  0.00
  C289                    1.00   0.25  0.00  0.00  0.75  0.00  0.00  0.00  0.00  0.00
  C290                    1.00   0.12  0.13  0.00  0.75  0.00  0.00  0.00  0.00  0.00
  C291                    1.00   0.12  0.00  0.00  0.88  0.00  0.00  0.00  0.07  0.00
  C292                    1.00   0.15  0.00  0.00  0.85  0.00  0.00  0.00  0.01  0.00
  C293                    1.00   0.16  0.00  0.00  0.84  0.00  0.00  0.00  0.01  0.00
  C294                    1.00   0.17  0.00  0.00  0.83  0.00  0.00  0.00  0.00  0.00
  C295                    1.00   0.20  0.00  0.00  0.80  0.00  0.00  0.00  0.00  0.00
  C296                    1.00   0.19  0.04  0.00  0.78  0.00  0.00  0.00  0.00  0.00
  C297                    1.00   0.19  0.00  0.00  0.81  0.00  0.00  0.00  0.00  0.00
  C298                    1.00   0.25  0.00  0.00  0.75  0.00  0.00  0.00  0.00  0.00
  C299                    1.00   0.26  0.00  0.00  0.74  0.00  0.00  0.00  0.00  0.00
  C300                    1.00   0.26  0.00  0.00  0.74  0.00  0.00  0.00  0.00  0.00
  C301                    1.00   0.27  0.00  0.00  0.73  0.00  0.00  0.00  0.00  0.00
  C302                    1.00   0.00  0.00  0.00  1.00  0.00  0.00  0.00  0.00  0.00
  C303                    1.00   0.00  0.00  0.00  1.00  0.00  0.00  0.00  0.00  0.00
  C353                    1.00   0.15  0.00  0.00  0.00  0.00  0.00  0.85  0.00  0.00
  
  
  *************************
  Conduit Surcharge Summary
  *************************
  
  ----------------------------------------------------------------------------
                                                           Hours        Hours 
                         --------- Hours Full --------   Above Full   Capacity
  Conduit                Both Ends  Upstream  Dnstream   Normal Flow   Limited
  ----------------------------------------------------------------------------
  FID1123                     0.01      0.01      0.74      0.01         0.01
  FID1139                     0.01      0.01      0.01      0.04         0.01
  FID4201                     0.01      0.05      0.01      0.15         0.01
  FID4498                     0.01      0.01      2.44      0.01         0.01
  FID4882                     0.01      0.01      3.04      0.01         0.01
  FID4914                     0.01      0.01      3.30      0.01         0.01
  FID4917                     0.01      0.01      1.66      0.01         0.01
  C197                        0.01      0.01      0.67      0.01         0.01
  C199                        0.01      0.01      0.01      8.52         0.01
  C200                        0.01      0.01      0.01      8.48         0.01
  C216                        0.01      0.01      0.01      0.33         0.01
  C222                        0.01      0.01      0.01      0.64         0.01
  C224                        0.86      0.92      0.91      0.71         0.52
  C225                        0.90      0.91      0.93      0.72         0.55
  C226                        0.92      0.93      0.95      0.73         0.59
  C227                        0.81      1.04      0.81      1.39         0.81
  C262                        0.01      0.01      1.42      0.01         0.01
  
  
  ***************************
  Link Pollutant Load Summary
  ***************************
  
  --------------------------------------------------------------
                                 TSS            TP           TDP
  Link                            kg            kg            kg
  --------------------------------------------------------------
  FID1123                      7.178         0.002         0.063
  FID1139                    141.911         0.045         0.312
  FID1148                    276.698         0.108         0.457
  FID1149                    276.107         0.108         0.457
  FID3364                    340.817         0.140         0.495
  FID3671                     11.204         0.009         0.007
  FID3672                    100.500         0.039         0.064
  FID3762                    214.255         0.128         0.108
  FID3765                    343.491         0.187         0.244
  FID4112                    143.576         0.060         0.122
  FID4186                     19.558         0.019         0.013
  FID4187                     19.009         0.019         0.013
  FID4201                    102.988         0.046         0.064
  FID4202                    100.845         0.045         0.063
  FID4203                      0.000         0.000         0.000
  FID4299                     15.941         0.009         0.004
  FID4372                    390.673         0.813         0.429
  FID4498                    442.556         0.037         0.062
  FID4806                    829.243         0.268         0.857
  FID4807                      0.003         0.001         0.000
  FID4882                      0.002         0.000         0.000
  FID4884                     54.861         0.016         0.274
  FID4914                     53.947         0.037         0.017
  FID4915                      5.660         0.003         0.003
  FID4916                      0.567         0.001         0.003
  FID4917                      0.239         0.000         0.003
  FID5307                     31.278         0.012         0.055
  FID5308                     20.267         0.010         0.003
  FID5312                     28.666         0.012         0.053
  FID5865                    331.096         0.916         1.073
  C9                         177.703         1.078         1.309
  C12                        176.424         1.060         1.285
  C13                        239.088         1.076         1.325
  C14                        156.154         0.708         0.877
  C52                        500.256         0.229         0.442
  C130                        29.525         0.011         0.121
  C131                        28.121         0.011         0.120
  C139                         3.748         0.001         0.003
  C191                       268.012         0.748         0.937
  C193                       270.181         0.728         0.910
  C194                       265.441         0.721         0.906
  C195                       264.764         0.719         0.904
  C196                       256.878         0.743         0.936
  C197                       608.561         0.903         1.144
  C198                       822.567         1.029         1.249
  C199                       827.180         1.027         1.245
  C200                       825.044         1.023         1.241
  C201                       836.068         1.021         1.235
  C202                       849.157         1.026         1.235
  C203                       848.861         1.022         1.230
  C204                       843.268         1.018         1.227
  C205                      1111.516         1.108         1.553
  C206                      1254.159         1.165         1.672
  C207                      1261.966         1.165         1.673
  C208                      1277.077         1.175         1.677
  C209                      1262.672         1.165         1.667
  C210                      1263.679         1.163         1.664
  C211                      1261.494         1.161         1.661
  C212                      1655.692         1.349         1.980
  C213                      1667.304         1.352         1.978
  C214                      1669.325         1.350         1.978
  C215                      1784.040         1.413         2.028
  C216                      1702.523         1.370         1.983
  C217                      1806.051         1.413         2.044
  C218                      2303.423         1.639         2.482
  C219                      2312.978         1.640         2.482
  C220                      2320.864         1.638         2.480
  C221                      2353.203         1.666         2.497
  C222                      2556.557         1.746         2.673
  C223                      2862.348         1.850         3.026
  C224                      2893.246         1.856         3.034
  C225                      2887.307         1.858         3.047
  C226                      2885.339         1.853         3.041
  C227                      2983.449         1.885         3.062
  C228                      2923.978         1.875         3.032
  C229                      3208.722         2.042         3.321
  C230                      3221.340         2.048         3.321
  C231                      3260.335         2.058         3.334
  C232                      3239.341         2.043         3.315
  C233                      3315.310         2.073         3.340
  C234                      3256.645         2.043         3.301
  C235                      3293.848         2.056         3.315
  C236                      3682.313         2.866         3.741
  C237                      3706.730         2.881         3.748
  C238                      4105.230         3.064         4.063
  C239                      4089.292         3.050         4.051
  C240                      4077.338         3.040         4.043
  C241                      4096.967         3.049         4.045
  C242                      4133.786         3.065         4.100
  C243                      4231.971         3.129         4.139
  C244                      4183.851         3.096         4.112
  C245                      4186.417         3.097         4.110
  C246                      5125.931         3.422         5.019
  C247                      5089.821         3.396         4.967
  C248                      5118.552         3.408         4.975
  C249                      5078.691         3.381         4.946
  C250                      5096.171         3.386         4.944
  C251                      5098.587         3.387         4.943
  C252                      5422.505         3.520         5.430
  C253                      5438.695         3.528         5.439
  C254                      5451.601         3.530         5.442
  C255                      5447.984         3.523         5.432
  C256                      5870.164         3.551         5.480
  C257                      5857.234         3.552         5.471
  C258                      5860.825         3.551         5.469
  C259                      5909.169         3.559         5.479
  C260                      5863.907         3.549         5.466
  C261                      5927.010         3.563         5.738
  C262                      6020.738         3.583         5.800
  C263                      6100.635         3.629         5.996
  C264                      6319.224         3.766         6.453
  C265                      6251.276         4.431         6.629
  C266                      6292.705         4.470         6.683
  C267                      6258.508         4.450         6.644
  C268                      6279.670         4.480         6.682
  C269                      6208.569         4.394         6.604
  C270                      6299.163         4.434         6.671
  C271                      6345.295         4.402         6.632
  C272                      6370.702         4.403         6.636
  C273                      6531.019         4.528         7.107
  C274                      6506.816         4.513         7.078
  C275                      6469.150         4.501         7.051
  C276                      6436.438         4.496         7.036
  C277                      6402.872         4.483         7.012
  C278                      6389.203         4.480         7.005
  C279                      6384.916         4.479         7.003
  C280                      6428.005         4.471         7.000
  C281                      6483.070         4.503         7.277
  C282                      6498.795         4.512         7.294
  C283                      6518.385         4.521         7.409
  C284                      6522.099         4.523         7.412
  C285                      6524.643         4.528         7.421
  C286                      6504.807         4.532         7.418
  C287                      6485.346         4.530         7.407
  C288                      6462.870         4.522         7.383
  C289                      6452.192         4.518         7.372
  C290                      6447.788         4.516         7.367
  C291                      6445.508         4.500         7.342
  C292                      6539.379         4.546         7.712
  C293                      6521.647         4.540         7.694
  C294                      6518.128         4.542         7.697
  C295                      6493.100         4.528         7.657
  C296                      6496.444         4.529         7.661
  C297                      6503.239         4.537         7.675
  C298                      6496.112         4.538         7.670
  C299                      6476.599         4.527         7.639
  C300                      6488.889         4.537         7.662
  C301                      6459.667         4.516         7.611
  C302                       177.079         1.073         1.302
  C303                       269.657         0.740         0.926
  C353                        95.331         0.029         0.339
  

  Analysis begun on:  Tue Oct 10 20:13:13 2017
  Analysis ended on:  Tue Oct 10 20:13:29 2017
  Total elapsed time: 00:00:16