
  EPA STORM WATER MANAGEMENT MODEL - VERSION 5.1 (Build 5.1.010)
  --------------------------------------------------------------

  WARNING 04: minimum elevation drop used for Conduit C199
  WARNING 04: minimum elevation drop used for Conduit C200
  WARNING 02: maximum depth increased for Node FID1955
  WARNING 02: maximum depth increased for Node FID1960
  WARNING 02: maximum depth increased for Node FID1965
  WARNING 02: maximum depth increased for Node FID1968
  WARNING 02: maximum depth increased for Node FID2244
  WARNING 02: maximum depth increased for Node FID2442
  WARNING 02: maximum depth increased for Node FID2446
  WARNING 02: maximum depth increased for Node FID5504
  WARNING 02: maximum depth increased for Node FID5527
  WARNING 02: maximum depth increased for Node AFID6926
  WARNING 02: maximum depth increased for Node AFID7376
  
  *********************************************************
  NOTE: The summary statistics displayed in this report are
  based on results found at every computational time step,  
  not just on results from each reporting time step.
  *********************************************************
  
  ****************
  Analysis Options
  ****************
  Flow Units ............... CMS
  Process Models:
    Rainfall/Runoff ........ YES
    RDII ................... NO
    Snowmelt ............... NO
    Groundwater ............ NO
    Flow Routing ........... YES
    Ponding Allowed ........ YES
    Water Quality .......... YES
  Infiltration Method ...... GREEN_AMPT
  Flow Routing Method ...... DYNWAVE
  Starting Date ............ MAY-06-2016 15:00:00
  Ending Date .............. MAY-07-2016 00:00:00
  Antecedent Dry Days ...... 0.0
  Report Time Step ......... 00:01:00
  Wet Time Step ............ 00:01:00
  Dry Time Step ............ 01:00:00
  Routing Time Step ........ 5.00 sec
  Variable Time Step ....... YES
  Maximum Trials ........... 8
  Number of Threads ........ 3
  Head Tolerance ........... 0.001500 m
  
  
  **************************        Volume         Depth
  Runoff Quantity Continuity     hectare-m            mm
  **************************     ---------       -------
  Total Precipitation ......         2.583         6.709
  Evaporation Loss .........         0.000         0.000
  Infiltration Loss ........         1.084         2.814
  Surface Runoff ...........         0.237         0.616
  Final Storage ............         1.263         3.279
  Continuity Error (%) .....        -0.012
  
  
  **************************           TSS            TP           TDP
  Runoff Quality Continuity             kg            kg            kg
  **************************    ----------    ----------    ----------
  Initial Buildup ..........         0.000         0.000         0.000
  Surface Buildup ..........     16539.375        17.330         7.465
  Wet Deposition ...........         0.000         0.000         0.000
  Sweeping Removal .........         0.000         0.000         0.000
  Infiltration Loss ........         0.000         0.000         0.000
  BMP Removal ..............         0.641         0.000         0.000
  Surface Runoff ...........      6408.473         2.800         1.713
  Remaining Buildup ........     10130.261        14.530         5.752
  Continuity Error (%) .....         0.000         0.000         0.000
  
  
  **************************        Volume        Volume
  Flow Routing Continuity        hectare-m      10^6 ltr
  **************************     ---------     ---------
  Dry Weather Inflow .......         0.000         0.000
  Wet Weather Inflow .......         0.237         2.373
  Groundwater Inflow .......         0.000         0.000
  RDII Inflow ..............         0.000         0.000
  External Inflow ..........         1.384        13.843
  External Outflow .........         1.251        12.514
  Flooding Loss ............         0.000         0.000
  Evaporation Loss .........         0.000         0.000
  Exfiltration Loss ........         0.000         0.000
  Initial Stored Volume ....         0.000         0.000
  Final Stored Volume ......         0.374         3.737
  Continuity Error (%) .....        -0.219
  
  
  **************************           TSS            TP           TDP
  Quality Routing Continuity            kg            kg            kg
  **************************    ----------    ----------    ----------
  Dry Weather Inflow .......         0.000         0.000         0.000
  Wet Weather Inflow .......      6255.288         2.763         1.682
  Groundwater Inflow .......         0.000         0.000         0.000
  RDII Inflow ..............         0.000         0.000         0.000
  External Inflow ..........       137.985         1.039         1.284
  External Outflow .........      6370.241         3.547         2.623
  Flooding Loss ............         0.000         0.000         0.000
  Exfiltration Loss ........         0.000         0.000         0.000
  Mass Reacted .............         0.000         0.000         0.000
  Initial Stored Mass ......         0.000         0.000         0.000
  Final Stored Mass ........        29.551         0.256         0.337
  Continuity Error (%) .....        -0.102        -0.048         0.184
  
  
  *************************
  Highest Continuity Errors
  *************************
  Node FID2824 (18.63%)
  Node FID2827 (17.97%)
  Node FID2241 (3.80%)
  Node FID5785 (3.27%)
  Node FID2711 (2.62%)
  
  
  ***************************
  Time-Step Critical Elements
  ***************************
  Link C241 (94.77%)
  Link C14 (4.64%)
  
  
  ********************************
  Highest Flow Instability Indexes
  ********************************
  All links are stable.
  
  
  *************************
  Routing Time Step Summary
  *************************
  Minimum Time Step           :     0.62 sec
  Average Time Step           :     0.97 sec
  Maximum Time Step           :     5.00 sec
  Percent in Steady State     :     0.00
  Average Iterations per Step :     2.00
  Percent Not Converging      :     0.00
  
  
  ***************************
  Subcatchment Runoff Summary
  ***************************
  
  --------------------------------------------------------------------------------------------------------
                            Total      Total      Total      Total      Total       Total     Peak  Runoff
                           Precip      Runon       Evap      Infil     Runoff      Runoff   Runoff   Coeff
  Subcatchment                 mm         mm         mm         mm         mm    10^6 ltr      CMS
  --------------------------------------------------------------------------------------------------------
  S0                         5.84       0.00       0.00       4.99       0.08        0.00     0.00   0.013
  S1                         5.84       0.00       0.00       2.34       0.31        0.03     0.01   0.053
  S2                         6.35       0.00       0.00       1.59       0.42        0.07     0.02   0.066
  S3                         5.84       0.00       0.00       3.66       0.19        0.01     0.00   0.033
  S4                         5.84       0.00       0.00       2.55       0.29        0.03     0.02   0.050
  S6                         6.35       0.00       0.00       0.61       0.50        0.01     0.00   0.079
  S7                         6.35       0.00       0.00       1.05       0.92        0.36     0.08   0.145
  S8                         6.35       0.00       0.00       0.61       0.51        0.00     0.00   0.080
  S9                         6.35       0.00       0.00       1.39       0.44        0.00     0.00   0.069
  S10                        6.35       0.00       0.00       1.51       0.43        0.00     0.00   0.067
  S11                        6.35       0.00       0.00       4.89       0.13        0.00     0.00   0.020
  S12                        6.35       0.00       0.00       1.76       0.40        0.00     0.00   0.064
  S13                        6.35       0.00       0.00       2.03       0.38        0.03     0.01   0.060
  S14                        6.35       0.00       0.00       4.29       0.18        0.00     0.00   0.029
  S16                        6.35       0.00       0.00       2.18       2.56        0.14     0.05   0.403
  S17                        6.35       0.00       0.00       1.70       0.41        0.08     0.02   0.064
  S18                        6.35       0.00       0.00       0.99       0.47        0.00     0.00   0.074
  S19                        6.35       0.00       0.00       3.23       0.27        0.01     0.00   0.043
  S20                        6.35       0.00       0.00       1.87       0.39        0.00     0.00   0.062
  S21                        6.35       0.00       0.00       3.17       0.66        0.35     0.12   0.104
  S22                        6.35       0.00       0.00       1.32       0.44        0.00     0.00   0.070
  S23                        6.35       0.00       0.00       3.62       0.24        0.00     0.00   0.038
  S24                        6.35       0.00       0.00       3.39       0.26        0.00     0.00   0.041
  S25                        6.35       0.00       0.00       2.11       0.37        0.00     0.00   0.059
  S27                        6.35       0.00       0.00       2.49       0.34        0.00     0.00   0.054
  S28                        5.84       0.00       0.00       5.83       0.00        0.00     0.00   0.000
  S29                        5.84       0.00       0.00       5.80       0.00        0.00     0.00   0.001
  S30                        6.35       0.00       0.00       6.33       0.00        0.00     0.00   0.000
  S31                        6.35       0.00       0.00       6.34       0.00        0.00     0.00   0.000
  S32                        6.35       0.00       0.00       4.54       0.16        0.00     0.00   0.025
  S33                        6.35       0.00       0.00       1.13       0.46        0.01     0.00   0.072
  S34                        6.35       0.00       0.00       2.90       1.86        0.66     0.19   0.294
  S35                        6.35       0.00       0.00       3.37       0.26        0.00     0.00   0.041
  S36                        6.35       0.00       0.00       4.94       0.12        0.00     0.00   0.020
  S37                        6.35       0.00       0.00       1.47       0.43        0.00     0.00   0.068
  S39                        6.35       0.00       0.00       3.53       0.25        0.04     0.01   0.039
  S40                        6.35       0.00       0.00       4.26       0.18        0.00     0.00   0.029
  S41                        6.35       0.00       0.00       1.85       0.40        0.05     0.02   0.062
  S42                        6.35       0.00       0.00       2.28       0.36        0.04     0.01   0.056
  S43                        6.35       0.00       0.00       4.61       0.15        0.00     0.00   0.024
  S44                        6.35       0.00       0.00       2.35       0.35        0.08     0.03   0.055
  S45                        8.13       0.00       0.00       4.23       0.35        0.00     0.00   0.043
  S47                        8.13       0.00       0.00       3.06       0.45        0.02     0.01   0.056
  S48                        8.13       0.00       0.00       3.77       0.39        0.00     0.00   0.048
  S49                        8.13       0.00       0.00       3.22       0.43        0.08     0.05   0.053
  S51                        8.13       0.00       0.00       6.87       0.11        0.00     0.00   0.014
  S52                        8.13       0.00       0.00       3.57       0.40        0.03     0.02   0.050
  S53                        8.13       0.00       0.00       3.41       0.42        0.06     0.04   0.051
  S54                        8.13       0.00       0.00       4.56       0.31        0.03     0.01   0.039
  S55                        8.13       0.00       0.00       3.59       0.40        0.07     0.02   0.049
  S56                        8.13       0.00       0.00       5.68       0.22        0.00     0.00   0.026
  S57                        8.13       0.00       0.00       3.01       0.45        0.00     0.00   0.055
  S58                        8.13       0.00       0.00       3.95       0.37        0.01     0.00   0.045
  S59                        8.13       0.00       0.00       6.89       0.11        0.00     0.00   0.013
  S60                        8.13       0.00       0.00       5.57       0.22        0.01     0.00   0.028
  S61                        8.13       0.00       0.00       7.06       0.09        0.00     0.00   0.012
  S62                        8.13       0.00       0.00       6.53       0.14        0.00     0.00   0.018
  S63                        6.35       0.00       0.00       5.25       0.10        0.00     0.00   0.015
  S64                        6.35       0.00       0.00       2.56       0.33        0.00     0.00   0.053
  S65                        6.35       0.00       0.00       4.04       0.20        0.03     0.01   0.032
  
  
  ****************************
  Subcatchment Washoff Summary
  ****************************
  
  --------------------------------------------------------------
                                 TSS            TP           TDP
  Subcatchment                    kg            kg            kg
  --------------------------------------------------------------
  S0                           0.000         0.000         0.000
  S1                         116.909         0.023         0.024
  S2                         308.415         0.100         0.040
  S3                          31.772         0.010         0.007
  S4                         218.916         0.052         0.029
  S6                          31.834         0.011         0.005
  S7                         505.742         0.088         0.372
  S8                           0.610         0.000         0.000
  S9                           0.688         0.000         0.000
  S10                          7.045         0.004         0.001
  S11                          0.001         0.000         0.000
  S12                          0.385         0.000         0.000
  S13                         99.916         0.028         0.017
  S14                          0.185         0.004         0.000
  S16                         59.139         0.037         0.057
  S17                        333.635         0.110         0.042
  S18                          0.714         0.000         0.000
  S19                         13.194         0.015         0.002
  S20                         10.475         0.006         0.001
  S21                       1826.536         0.561         0.253
  S22                          4.502         0.003         0.001
  S23                          7.050         0.016         0.001
  S24                         14.259         0.006         0.004
  S25                         20.775         0.012         0.001
  S27                         11.361         0.006         0.001
  S28                          0.000         0.000         0.000
  S29                          0.000         0.000         0.000
  S30                          0.000         0.000         0.000
  S31                          0.000         0.000         0.000
  S32                          0.352         0.003         0.000
  S33                         31.078         0.015         0.006
  S34                        171.623         0.343         0.356
  S35                          3.991         0.002         0.000
  S36                          0.584         0.007         0.000
  S37                         13.063         0.007         0.002
  S39                         88.943         0.081         0.018
  S40                          2.991         0.018         0.001
  S41                        292.175         0.097         0.038
  S42                        239.174         0.060         0.023
  S43                          1.830         0.014         0.001
  S44                        449.053         0.134         0.045
  S45                          1.155         0.001         0.001
  S47                         85.214         0.082         0.043
  S48                          8.067         0.008         0.005
  S49                        404.028         0.221         0.103
  S51                          3.254         0.005         0.000
  S52                        151.460         0.100         0.053
  S53                        299.226         0.163         0.086
  S54                         77.333         0.068         0.009
  S55                        306.627         0.123         0.030
  S56                          0.010         0.000         0.000
  S57                         21.798         0.007         0.002
  S58                         66.705         0.022         0.008
  S59                          0.095         0.004         0.002
  S60                          3.074         0.023         0.001
  S61                          0.016         0.004         0.000
  S62                         13.479         0.016         0.001
  S63                          0.114         0.007         0.001
  S64                         15.981         0.014         0.001
  S65                         31.921         0.059         0.019
  --------------------------------------------------------------
  System                    6408.473         2.800         1.713
  
  
  ******************
  Node Depth Summary
  ******************
  
  ---------------------------------------------------------------------------------
                                 Average  Maximum  Maximum  Time of Max    Reported
                                   Depth    Depth      HGL   Occurrence   Max Depth
  Node                 Type       Meters   Meters   Meters  days hr:min      Meters
  ---------------------------------------------------------------------------------
  FID1936              JUNCTION     0.13     0.22  1376.52     0  04:05        0.07
  FID1955              JUNCTION     0.13     0.20  1376.12     0  03:45        0.06
  FID1960              JUNCTION     0.13     0.19  1376.05     0  03:45        0.06
  FID1965              JUNCTION     0.13     0.18  1376.48     0  04:15        0.06
  FID1968              JUNCTION     0.12     0.17  1376.57     0  04:13        0.05
  FID2239              JUNCTION     0.12     0.20  1374.71     0  03:30        0.06
  FID2241              JUNCTION     0.11     0.17  1373.30     0  03:30        0.05
  FID2242              JUNCTION     0.12     0.18  1374.22     0  03:30        0.05
  FID2244              JUNCTION     0.12     0.16  1374.52     0  03:30        0.05
  FID2440              JUNCTION     0.25     0.28  1374.53     0  04:10        0.08
  FID2442              JUNCTION     0.00     0.00  1375.27     0  00:00        0.00
  FID2446              JUNCTION     0.13     0.24  1376.04     0  04:05        0.07
  FID2447              JUNCTION     0.13     0.23  1375.93     0  04:05        0.07
  FID2455              JUNCTION     0.17     0.19  1374.18     0  04:13        0.06
  FID2711              JUNCTION     0.11     0.18  1370.36     0  04:05        0.05
  FID2719              JUNCTION     0.13     0.23  1370.33     0  04:05        0.07
  FID2720              JUNCTION     0.13     0.23  1370.43     0  04:05        0.07
  FID2824              JUNCTION     0.10     0.16  1371.44     0  03:55        0.05
  FID2827              JUNCTION     0.11     0.18  1371.48     0  03:55        0.06
  FID2828              JUNCTION     0.12     0.18  1371.50     0  03:30        0.06
  FID2832              JUNCTION     0.13     0.20  1370.80     0  04:10        0.06
  FID2833              JUNCTION     0.15     0.27  1370.89     0  04:10        0.08
  FID2839              JUNCTION     0.14     0.22  1371.42     0  04:10        0.07
  FID2873              JUNCTION     0.13     0.19  1370.89     0  04:10        0.06
  FID2964              JUNCTION     0.14     0.25  1371.03     0  04:10        0.08
  FID2965              JUNCTION     0.23     0.35  1370.61     0  04:35        0.11
  FID4584              JUNCTION     0.00     0.00  1371.34     0  00:00        0.00
  FID5068              JUNCTION     0.12     0.17  1375.55     0  03:30        0.05
  FID5072              JUNCTION     0.28     0.33  1373.62     0  04:20        0.10
  FID5140              JUNCTION     0.16     0.34  1373.56     0  04:20        0.10
  FID5435              JUNCTION     0.14     0.24  1372.99     0  04:20        0.07
  FID5437              JUNCTION     0.11     0.16  1373.11     0  03:30        0.05
  FID5503              JUNCTION     0.05     0.08  1371.41     0  09:00        0.02
  FID5504              JUNCTION     0.13     0.18  1371.54     0  04:10        0.06
  FID5527              JUNCTION     0.12     0.17  1372.67     0  03:30        0.05
  FID5568              JUNCTION     0.28     0.36  1372.75     0  04:21        0.11
  FID5784              JUNCTION     0.30     0.39  1372.39     0  04:23        0.12
  FID5785              JUNCTION     0.12     0.18  1374.61     0  03:31        0.06
  AFID6926             JUNCTION     0.13     0.18  1369.98     0  04:15        0.06
  AFID7360             JUNCTION     0.27     0.41  1370.54     0  04:36        0.12
  AFID7363             JUNCTION     0.25     0.38  1370.55     0  04:36        0.12
  AFID7376             JUNCTION     0.14     0.23  1371.46     0  04:10        0.07
  AFID7377             JUNCTION     0.25     0.35  1371.03     0  04:32        0.11
  AFID7705             JUNCTION     0.37     0.39  1375.35     0  04:15        0.12
  AFID7706             JUNCTION     0.43     0.44  1375.35     0  04:15        0.13
  AFID7792             JUNCTION     0.13     0.23  1375.03     0  03:30        0.07
  AFID8223             JUNCTION     0.30     0.39  1372.39     0  04:23        0.12
  J1                   JUNCTION     0.58     0.59  1375.58     0  04:15        0.18
  FID4901              JUNCTION     0.31     0.32  1375.39     0  04:15        0.10
  J9                   JUNCTION     0.47     0.48  1375.57     0  04:15        0.15
  J11                  JUNCTION     0.32     0.32  1375.53     0  04:16        0.10
  J12                  JUNCTION     0.31     0.32  1375.43     0  04:16        0.10
  J13                  JUNCTION     0.31     0.32  1375.40     0  04:15        0.10
  FID4902              JUNCTION     0.33     0.34  1375.39     0  04:15        0.10
  J14                  JUNCTION     0.25     0.27  1375.18     0  04:05        0.08
  J15                  JUNCTION     0.23     0.25  1374.91     0  04:05        0.08
  J16                  JUNCTION     0.24     0.26  1374.90     0  04:05        0.08
  FID2449              JUNCTION     0.25     0.28  1374.60     0  04:10        0.08
  J17                  JUNCTION     0.14     0.15  1374.13     0  04:13        0.05
  J19                  JUNCTION     0.22     0.26  1373.81     0  04:19        0.08
  FID5069              JUNCTION     0.31     0.36  1373.61     0  04:20        0.11
  FID5139              JUNCTION     0.30     0.39  1372.74     0  04:21        0.12
  J24                  JUNCTION     0.30     0.38  1372.75     0  04:21        0.12
  FID4984              JUNCTION     0.33     0.42  1372.38     0  04:23        0.13
  FID2669              JUNCTION     0.22     0.33  1368.77     0  04:42        0.10
  FID2712              JUNCTION     0.22     0.34  1369.53     0  04:40        0.10
  FID2718              JUNCTION     0.22     0.34  1369.58     0  04:40        0.10
  FID2838              JUNCTION     0.36     0.51  1370.45     0  04:36        0.16
  FID2825              JUNCTION     0.40     0.57  1370.47     0  04:36        0.17
  FID2823              JUNCTION     0.46     0.62  1370.50     0  04:36        0.19
  FID5505              JUNCTION     0.33     0.49  1370.51     0  04:36        0.15
  FID5436              JUNCTION     0.34     0.45  1371.77     0  04:30        0.14
  FID5438              JUNCTION     0.26     0.36  1371.78     0  04:28        0.11
  J49                  JUNCTION     0.35     0.36  1375.38     0  04:15        0.11
  J50                  JUNCTION     0.39     0.40  1375.37     0  04:16        0.12
  J51                  JUNCTION     0.45     0.46  1375.36     0  04:15        0.14
  J52                  JUNCTION     0.46     0.48  1375.36     0  04:15        0.15
  J53                  JUNCTION     0.25     0.27  1375.19     0  04:05        0.08
  J54                  JUNCTION     0.26     0.27  1375.22     0  04:06        0.08
  J55                  JUNCTION     0.31     0.32  1375.34     0  04:15        0.10
  J56                  JUNCTION     0.29     0.30  1375.32     0  04:15        0.09
  J57                  JUNCTION     0.26     0.27  1375.30     0  04:15        0.08
  J58                  JUNCTION     0.26     0.27  1375.25     0  04:06        0.08
  FID1935              JUNCTION     0.26     0.28  1375.17     0  04:05        0.09
  J59                  JUNCTION     0.26     0.28  1375.15     0  04:05        0.09
  J60                  JUNCTION     0.26     0.28  1375.10     0  04:06        0.08
  J61                  JUNCTION     0.24     0.26  1375.03     0  04:07        0.08
  J62                  JUNCTION     0.23     0.25  1375.00     0  04:07        0.08
  J63                  JUNCTION     0.23     0.26  1374.94     0  04:07        0.08
  J64                  JUNCTION     0.23     0.25  1374.87     0  04:05        0.08
  J65                  JUNCTION     0.18     0.20  1374.78     0  04:08        0.06
  J66                  JUNCTION     0.25     0.28  1374.49     0  04:11        0.08
  J67                  JUNCTION     0.25     0.28  1374.43     0  04:12        0.08
  J68                  JUNCTION     0.25     0.28  1374.35     0  04:12        0.09
  J69                  JUNCTION     0.33     0.37  1374.09     0  04:14        0.11
  J70                  JUNCTION     0.32     0.36  1374.01     0  04:15        0.11
  J71                  JUNCTION     0.31     0.34  1373.94     0  04:15        0.11
  J72                  JUNCTION     0.30     0.34  1373.69     0  04:21        0.10
  J73                  JUNCTION     0.31     0.36  1373.58     0  04:20        0.11
  J74                  JUNCTION     0.31     0.35  1373.34     0  04:21        0.11
  J75                  JUNCTION     0.32     0.36  1373.20     0  04:01        0.11
  J76                  JUNCTION     0.30     0.39  1372.72     0  04:21        0.12
  J77                  JUNCTION     0.30     0.39  1372.59     0  04:21        0.12
  J78                  JUNCTION     0.30     0.39  1372.46     0  04:22        0.12
  J79                  JUNCTION     0.30     0.39  1372.40     0  04:23        0.12
  J80                  JUNCTION     0.24     0.32  1371.81     0  04:25        0.10
  J81                  JUNCTION     0.35     0.45  1371.45     0  04:31        0.14
  J82                  JUNCTION     0.36     0.46  1371.39     0  04:31        0.14
  J83                  JUNCTION     0.25     0.36  1371.16     0  04:32        0.11
  J84                  JUNCTION     0.23     0.32  1370.96     0  04:33        0.10
  J85                  JUNCTION     0.23     0.32  1370.85     0  04:33        0.10
  J86                  JUNCTION     0.23     0.33  1370.70     0  04:34        0.10
  J87                  JUNCTION     0.24     0.37  1370.56     0  04:36        0.11
  J88                  JUNCTION     0.32     0.47  1370.52     0  04:36        0.14
  J89                  JUNCTION     0.36     0.52  1370.51     0  04:36        0.16
  J90                  JUNCTION     0.32     0.47  1370.42     0  04:36        0.14
  J91                  JUNCTION     0.32     0.47  1370.36     0  04:37        0.14
  J92                  JUNCTION     0.32     0.47  1370.31     0  04:37        0.14
  J93                  JUNCTION     0.32     0.47  1370.20     0  04:38        0.14
  J94                  JUNCTION     0.32     0.47  1370.13     0  04:38        0.14
  J95                  JUNCTION     0.32     0.47  1370.11     0  04:38        0.14
  J96                  JUNCTION     0.32     0.47  1370.03     0  04:38        0.14
  J97                  JUNCTION     0.31     0.47  1369.96     0  04:39        0.14
  J98                  JUNCTION     0.31     0.46  1369.91     0  04:39        0.14
  J99                  JUNCTION     0.31     0.46  1369.85     0  04:39        0.14
  J100                 JUNCTION     0.30     0.44  1369.80     0  04:39        0.14
  J101                 JUNCTION     0.29     0.42  1369.75     0  04:40        0.13
  J102                 JUNCTION     0.22     0.34  1369.61     0  04:40        0.10
  J103                 JUNCTION     0.22     0.34  1369.56     0  04:40        0.10
  J104                 JUNCTION     0.22     0.34  1369.50     0  04:40        0.10
  J105                 JUNCTION     0.22     0.33  1369.46     0  04:40        0.10
  J106                 JUNCTION     0.22     0.33  1369.40     0  04:40        0.10
  J107                 JUNCTION     0.22     0.33  1369.26     0  04:41        0.10
  J108                 JUNCTION     0.22     0.33  1369.12     0  04:41        0.10
  J109                 JUNCTION     0.22     0.33  1369.01     0  04:41        0.10
  J110                 JUNCTION     0.22     0.33  1368.91     0  04:41        0.10
  J111                 JUNCTION     0.21     0.33  1368.81     0  04:41        0.10
  J112                 JUNCTION     0.21     0.33  1368.65     0  04:42        0.10
  J113                 JUNCTION     0.21     0.33  1368.55     0  04:42        0.10
  J114                 JUNCTION     0.21     0.33  1368.44     0  04:42        0.10
  J115                 JUNCTION     0.21     0.33  1368.38     0  04:42        0.10
  J116                 JUNCTION     0.21     0.33  1368.31     0  04:42        0.10
  J117                 JUNCTION     0.21     0.33  1368.21     0  04:43        0.10
  J118                 JUNCTION     0.21     0.33  1368.10     0  04:43        0.10
  J119                 JUNCTION     0.22     0.33  1368.04     0  04:43        0.10
  J120                 JUNCTION     0.24     0.36  1367.96     0  04:43        0.11
  FID2451              JUNCTION     0.24     0.27  1374.56     0  04:10        0.08
  J121                 JUNCTION     0.22     0.33  1371.07     0  04:32        0.10
  J122                 JUNCTION     0.23     0.34  1371.05     0  04:32        0.10
  FID3706              JUNCTION     0.32     0.47  1370.21     0  04:38        0.14
  FID2831              JUNCTION     0.32     0.47  1370.10     0  04:38        0.14
  FID2689              OUTFALL      0.21     0.33  1367.83     0  04:43        0.10
  
  
  *******************
  Node Inflow Summary
  *******************
  
  -------------------------------------------------------------------------------------------------
                                  Maximum  Maximum                  Lateral       Total        Flow
                                  Lateral    Total  Time of Max      Inflow      Inflow     Balance
                                   Inflow   Inflow   Occurrence      Volume      Volume       Error
  Node                 Type           CMS      CMS  days hr:min    10^6 ltr    10^6 ltr     Percent
  -------------------------------------------------------------------------------------------------
  FID1936              JUNCTION     0.019    0.019     0  04:05      0.0271      0.0271       0.635
  FID1955              JUNCTION     0.016    0.016     0  04:15       0.065       0.065       0.271
  FID1960              JUNCTION     0.007    0.007     0  04:15      0.0296      0.0296       0.604
  FID1965              JUNCTION     0.004    0.004     0  04:15      0.0149      0.0149       1.180
  FID1968              JUNCTION     0.001    0.001     0  04:15      0.0045      0.0045       4.034
  FID2239              JUNCTION     0.002    0.002     0  03:30     0.00499     0.00499       5.345
  FID2241              JUNCTION     0.000    0.002     0  03:30           0     0.00453       3.952
  FID2242              JUNCTION     0.002    0.002     0  03:30     0.00471     0.00471       3.929
  FID2244              JUNCTION     0.001    0.001     0  03:30     0.00183     0.00183      10.554
  FID2440              JUNCTION     0.000    0.523     0  04:10           0          13       0.181
  FID2442              JUNCTION     0.000    0.000     0  00:00           0           0       0.000 ltr
  FID2446              JUNCTION     0.014    0.014     0  04:05      0.0192      0.0192       2.193
  FID2447              JUNCTION     0.000    0.014     0  04:05           0      0.0188       0.514
  FID2455              JUNCTION     0.013    0.527     0  04:12      0.0364        12.8       0.171
  FID2711              JUNCTION     0.000    0.004     0  04:05           0     0.00601       2.686
  FID2719              JUNCTION     0.018    0.018     0  04:05      0.0289      0.0289       0.600
  FID2720              JUNCTION     0.004    0.004     0  04:05     0.00623     0.00623       3.723
  FID2824              JUNCTION     0.000    0.000     0  03:55    8.31e-05    0.000917      22.889
  FID2827              JUNCTION     0.000    0.000     0  03:39    9.41e-05     0.00102      21.904
  FID2828              JUNCTION     0.000    0.000     0  03:30     0.00111     0.00111      20.289
  FID2832              JUNCTION     0.000    0.018     0  04:10           0      0.0719       0.216
  FID2833              JUNCTION     0.018    0.018     0  04:10      0.0721      0.0721       0.334
  FID2839              JUNCTION     0.084    0.084     0  04:10       0.359       0.359       0.050
  FID2873              JUNCTION     0.002    0.002     0  04:10     0.00947     0.00947       1.882
  FID2964              JUNCTION     0.049    0.049     0  04:10       0.143       0.143       0.114
  FID2965              JUNCTION     0.000    0.834     0  04:33           0        12.7       0.224
  FID4584              JUNCTION     0.000    0.000     0  00:00           0           0       0.000 ltr
  FID5068              JUNCTION     0.001    0.001     0  03:30     0.00224     0.00224       8.416
  FID5072              JUNCTION     0.014    0.543     0  04:20      0.0367        12.5       0.164
  FID5140              JUNCTION     0.194    0.194     0  04:20       0.659       0.659       0.034
  FID5435              JUNCTION     0.116    0.116     0  04:20       0.353       0.353       0.054
  FID5437              JUNCTION     0.000    0.000     0  03:30    0.000612    0.000612      39.832
  FID5503              JUNCTION     0.000    0.000     0  03:27    8.88e-05    8.88e-05      88.807 ltr
  FID5504              JUNCTION     0.007    0.007     0  04:10      0.0286      0.0286       0.613
  FID5527              JUNCTION     0.002    0.002     0  03:30     0.00592     0.00592       2.996
  FID5568              JUNCTION     0.000    0.542     0  04:23    0.000876        12.3       0.589
  FID5784              JUNCTION     0.000    0.724     0  04:22           0        12.8       0.092
  FID5785              JUNCTION     0.000    0.002     0  03:30           0     0.00474       3.386
  AFID6926             JUNCTION     0.007    0.007     0  04:15      0.0302      0.0302       0.581
  AFID7360             JUNCTION     0.000    0.832     0  04:34    5.36e-05        12.7       0.168
  AFID7363             JUNCTION     0.000    0.833     0  04:34           0        12.7       0.084
  AFID7376             JUNCTION     0.020    0.020     0  04:10      0.0784      0.0784       0.162
  AFID7377             JUNCTION     0.000    0.819     0  04:32           0        12.7       0.100
  AFID7705             JUNCTION     0.000    0.460     0  04:15           0        13.4       0.221
  AFID7706             JUNCTION     0.000    0.453     0  04:15           0        13.4       0.218
  AFID7792             JUNCTION     0.028    0.028     0  03:30      0.0793      0.0793       0.216
  AFID8223             JUNCTION     0.000    0.724     0  04:22           0        12.8       0.018
  J1                   JUNCTION     0.654    0.654     0  04:15          21          21       0.118
  FID4901              JUNCTION     0.000    0.438     0  04:15           0        13.7       0.170
  J9                   JUNCTION     0.000    0.656     0  00:00           0          21       0.229
  J11                  JUNCTION     0.000    0.654     0  04:15           0        20.9       0.353
  J12                  JUNCTION     0.001    0.655     0  00:06     0.00275        20.8       0.393
  J13                  JUNCTION    -0.220    0.655     0  04:19       -7.13        20.8      -0.157
  FID4902              JUNCTION     0.000    0.439     0  04:15           0        13.7       0.271
  J14                  JUNCTION     0.037    0.486     0  04:05      0.0581        13.2       0.149
  J15                  JUNCTION     0.049    0.522     0  04:05       0.081        13.2       0.128
  J16                  JUNCTION     0.001    0.520     0  04:05     0.00113        13.1       0.132
  FID2449              JUNCTION     0.000    0.511     0  04:08    0.000163          13       1.027
  J17                  JUNCTION     0.020    0.535     0  04:13      0.0539        12.9       0.075
  J19                  JUNCTION     0.002    0.535     0  04:16     0.00469        12.7       0.955
  FID5069              JUNCTION     0.000    0.544     0  04:20           0        12.5       0.154
  FID5139              JUNCTION     0.000    0.723     0  04:20           0        12.8       0.040
  J24                  JUNCTION     0.002    0.552     0  04:24     0.00533        12.2       0.069
  FID4984              JUNCTION     0.000    0.725     0  04:22           0        12.8       0.732
  FID2669              JUNCTION     0.000    0.874     0  04:41           0        12.6       0.064
  FID2712              JUNCTION     0.000    0.871     0  04:40           0        12.7       0.080
  FID2718              JUNCTION     0.000    0.871     0  04:39           0        12.7       0.059
  FID2838              JUNCTION     0.000    0.866     0  04:35           0        12.8       0.184
  FID2825              JUNCTION     0.000    0.832     0  04:37           0        12.5       0.314
  FID2823              JUNCTION     0.000    0.832     0  04:36           0        12.6       0.475
  FID5505              JUNCTION     0.000    0.833     0  04:35           0        12.6       0.118
  FID5436              JUNCTION     0.000    0.816     0  04:27           0        12.9       0.673
  FID5438              JUNCTION     0.000    0.721     0  04:25           0        12.6       0.127
  J49                  JUNCTION     0.000    0.438     0  04:15           0        13.6       0.422
  J50                  JUNCTION     0.000    0.439     0  04:18    3.31e-05        13.6       0.772
  J51                  JUNCTION     0.000    0.440     0  04:19           0        13.5       0.651
  J52                  JUNCTION     0.000    0.441     0  04:19           0        13.4       0.197
  J53                  JUNCTION     0.000    0.461     0  04:15           0        13.2       0.148
  J54                  JUNCTION     0.000    0.461     0  04:15           0        13.2       0.219
  J55                  JUNCTION     0.000    0.460     0  04:15           0        13.4       0.224
  J56                  JUNCTION     0.000    0.460     0  04:15           0        13.3       0.234
  J57                  JUNCTION     0.000    0.460     0  04:15           0        13.3       0.283
  J58                  JUNCTION     0.000    0.461     0  04:16    0.000809        13.3       0.303
  FID1935              JUNCTION     0.000    0.503     0  04:05           0        13.3       0.196
  J59                  JUNCTION     0.000    0.501     0  04:05           0        13.2       0.255
  J60                  JUNCTION     0.001    0.498     0  04:05     0.00113        13.2       0.404
  J61                  JUNCTION     0.000    0.494     0  04:06           0        13.1       0.271
  J62                  JUNCTION     0.000    0.492     0  04:07           0        13.1       0.118
  J63                  JUNCTION     0.000    0.492     0  04:07           0        13.1       0.122
  J64                  JUNCTION     0.000    0.519     0  04:05           0        13.1       0.135
  J65                  JUNCTION     0.003    0.519     0  04:05     0.00363        13.1       0.737
  J66                  JUNCTION     0.000    0.522     0  04:10           0        12.9       0.232
  J67                  JUNCTION     0.000    0.522     0  04:11           0        12.9       0.352
  J68                  JUNCTION     0.001    0.522     0  04:12     0.00296        12.9       0.409
  J69                  JUNCTION     0.000    0.535     0  04:13           0        12.9       0.383
  J70                  JUNCTION     0.001    0.535     0  04:14     0.00149        12.8       0.497
  J71                  JUNCTION     0.000    0.534     0  04:15           0        12.8       0.371
  J72                  JUNCTION     0.002    0.536     0  04:19     0.00403        12.6       1.187
  J73                  JUNCTION     0.000    0.543     0  04:20           0        12.5       0.323
  J74                  JUNCTION     0.000    0.543     0  04:20           0        12.4       0.469
  J75                  JUNCTION     0.001    0.543     0  04:21     0.00155        12.4       0.741
  J76                  JUNCTION     0.000    0.722     0  04:20           0        12.8       0.178
  J77                  JUNCTION     0.012    0.727     0  04:20      0.0342        12.9       0.332
  J78                  JUNCTION     0.000    0.725     0  04:21           0        12.8       0.251
  J79                  JUNCTION     0.000    0.724     0  04:22           0        12.8       0.094
  J80                  JUNCTION     0.002    0.723     0  04:24     0.00394        12.7       0.528
  J81                  JUNCTION     0.000    0.815     0  04:30    0.000688        12.9       1.123
  J82                  JUNCTION     0.000    0.813     0  04:31           0        12.7       0.460
  J83                  JUNCTION     0.000    0.813     0  04:32           0        12.7       0.289
  J84                  JUNCTION     0.000    0.819     0  04:32           0        12.7       0.166
  J85                  JUNCTION     0.000    0.819     0  04:33           0        12.7       0.311
  J86                  JUNCTION     0.000    0.819     0  04:33           0        12.6       0.313
  J87                  JUNCTION     0.000    0.833     0  04:34     0.00106        12.7       0.122
  J88                  JUNCTION     0.000    0.832     0  04:35           0        12.6       0.206
  J89                  JUNCTION     0.000    0.832     0  04:36           0        12.6       0.330
  J90                  JUNCTION     0.000    0.866     0  04:36           0        12.8       0.109
  J91                  JUNCTION     0.000    0.866     0  04:36           0        12.8       0.156
  J92                  JUNCTION     0.000    0.866     0  04:37    4.12e-07        12.8       0.193
  J93                  JUNCTION     0.000    0.866     0  04:37           0        12.8       0.103
  J94                  JUNCTION     0.000    0.866     0  04:38    7.59e-07        12.7       0.120
  J95                  JUNCTION     0.000    0.866     0  04:38           0        12.7       0.046
  J96                  JUNCTION     0.000    0.869     0  04:38           0        12.8       0.173
  J97                  JUNCTION     0.000    0.869     0  04:38           0        12.8       0.148
  J98                  JUNCTION     0.000    0.869     0  04:39           0        12.7       0.131
  J99                  JUNCTION     0.000    0.868     0  04:39           0        12.7       0.113
  J100                 JUNCTION     0.000    0.868     0  04:39           0        12.7       0.096
  J101                 JUNCTION     0.000    0.868     0  04:39           0        12.7       0.111
  J102                 JUNCTION     0.000    0.868     0  04:40           0        12.7       0.082
  J103                 JUNCTION     0.000    0.871     0  04:40           0        12.7       0.064
  J104                 JUNCTION     0.000    0.871     0  04:40           0        12.7       0.086
  J105                 JUNCTION     0.000    0.871     0  04:40           0        12.7       0.107
  J106                 JUNCTION     0.000    0.871     0  04:40           0        12.7       0.120
  J107                 JUNCTION     0.000    0.871     0  04:40           0        12.6       0.118
  J108                 JUNCTION     0.000    0.871     0  04:41    2.73e-06        12.6       0.106
  J109                 JUNCTION     0.000    0.871     0  04:41           0        12.6       0.090
  J110                 JUNCTION     0.000    0.871     0  04:41           0        12.6       0.087
  J111                 JUNCTION     0.000    0.871     0  04:41    2.46e-05        12.6       0.063
  J112                 JUNCTION     0.000    0.874     0  04:42           0        12.6       0.091
  J113                 JUNCTION     0.000    0.874     0  04:42           0        12.6       0.089
  J114                 JUNCTION     0.000    0.874     0  04:42           0        12.6       0.075
  J115                 JUNCTION     0.000    0.874     0  04:42           0        12.6       0.056
  J116                 JUNCTION     0.000    0.874     0  04:42    7.38e-07        12.6       0.074
  J117                 JUNCTION     0.000    0.874     0  04:43           0        12.6       0.090
  J118                 JUNCTION     0.000    0.874     0  04:43           0        12.5       0.076
  J119                 JUNCTION     0.000    0.874     0  04:43           0        12.5       0.072
  J120                 JUNCTION     0.000    0.874     0  04:43           0        12.5       0.090
  FID2451              JUNCTION     0.000    0.509     0  04:10           0        12.9       0.176
  J121                 JUNCTION     0.001    0.812     0  04:32     0.00208        12.6       0.092
  J122                 JUNCTION     0.000    0.812     0  04:33    9.45e-05        12.6       0.087
  FID3706              JUNCTION     0.000    0.866     0  04:37           0        12.8       0.158
  FID2831              JUNCTION     0.000    0.869     0  04:38           0        12.8       0.103
  FID2689              OUTFALL      0.000    0.874     0  04:43           0        12.5       0.000
  
  
  **********************
  Node Surcharge Summary
  **********************
  
  No nodes were surcharged.
  
  
  *********************
  Node Flooding Summary
  *********************
  
  No nodes were flooded.
  
  
  ***********************
  Outfall Loading Summary
  ***********************
  
  -----------------------------------------------------------------------------------------------------
                         Flow       Avg       Max       Total         Total         Total         Total
                         Freq      Flow      Flow      Volume           TSS            TP           TDP
  Outfall Node           Pcnt       CMS       CMS    10^6 ltr            kg            kg            kg
  -----------------------------------------------------------------------------------------------------
  FID2689               83.95     0.532     0.874      12.514      6322.592         3.190         2.194
  -----------------------------------------------------------------------------------------------------
  System                83.95     0.532     0.874      12.514      6322.592         3.190         2.194
  
  
  ********************
  Link Flow Summary
  ********************
  
  -----------------------------------------------------------------------------
                                 Maximum  Time of Max   Maximum    Max/    Max/
                                  |Flow|   Occurrence   |Veloc|    Full    Full
  Link                 Type          CMS  days hr:min     m/sec    Flow   Depth
  -----------------------------------------------------------------------------
  FID1123              CONDUIT     0.002     0  04:10      0.47    0.03    0.12
  FID1139              CONDUIT     0.017     0  04:05      0.97    0.10    0.21
  FID1148              CONDUIT     0.018     0  04:10      0.52    0.04    0.10
  FID1149              CONDUIT     0.018     0  04:10      1.43    0.01    0.05
  FID3364              CONDUIT     0.020     0  04:10      0.52    0.01    0.14
  FID3671              CONDUIT     0.001     0  03:44      0.65    0.01    0.06
  FID3672              CONDUIT     0.004     0  04:15      0.94    0.02    0.10
  FID3762              CONDUIT     0.007     0  04:15      1.37    0.02    0.09
  FID3765              CONDUIT     0.016     0  04:15      1.82    0.04    0.13
  FID4112              CONDUIT     0.019     0  04:05      1.05    0.03    0.11
  FID4186              CONDUIT     0.002     0  03:30      0.63    0.01    0.06
  FID4187              CONDUIT     0.002     0  03:30      0.98    0.00    0.04
  FID4201              CONDUIT     0.014     0  04:05      0.73    0.11    0.22
  FID4202              CONDUIT     0.014     0  04:05      0.89    0.08    0.19
  FID4203              CONDUIT     0.000     0  00:00      0.00    0.00    0.10
  FID4299              CONDUIT     0.001     0  03:30      0.59    0.00    0.04
  FID4372              CONDUIT     0.193     0  04:20      1.58    0.06    0.19
  FID4498              CONDUIT     0.049     0  04:10      1.29    0.10    0.29
  FID4806              CONDUIT     0.116     0  04:20      3.54    0.02    0.10
  FID4807              CONDUIT     0.000     0  03:30      0.42    0.00    0.02
  FID4882              CONDUIT     0.000     0  00:00      0.00    0.00    0.06
  FID4884              CONDUIT     0.007     0  04:10      1.11    0.00    0.03
  FID4914              CONDUIT     0.002     0  03:30      0.05    0.00    0.41
  FID4915              CONDUIT     0.000     0  03:39      0.13    0.01    0.07
  FID4916              CONDUIT     0.000     0  03:55      0.14    0.01    0.05
  FID4917              CONDUIT     0.000     0  03:55      0.51    0.00    0.02
  FID5307              CONDUIT     0.002     0  03:30      0.29    0.03    0.11
  FID5308              CONDUIT     0.001     0  03:30      0.72    0.00    0.04
  FID5312              CONDUIT     0.002     0  03:31      0.40    0.01    0.06
  FID5865              CONDUIT     0.084     0  04:10      3.83    0.02    0.09
  C9                   CHANNEL     0.656     0  00:00      0.82    0.04    0.38
  C12                  CHANNEL     0.655     0  00:06      0.64    0.16    0.37
  C13                  CHANNEL     0.655     0  04:19      1.23    0.16    0.37
  C14                  CHANNEL     0.435     0  04:19      1.06    0.10    0.37
  C52                  CONDUIT     0.028     0  03:30      0.95    0.04    0.16
  C130                 CONDUIT     0.004     0  04:05      0.30    0.06    0.13
  C131                 CONDUIT     0.004     0  04:05      1.00    0.01    0.06
  C139                 CONDUIT     0.000     0  00:00      0.00    0.00    0.10
  C191                 CHANNEL     0.438     0  04:15      0.69    0.11    0.41
  C193                 CHANNEL     0.440     0  04:19      0.54    0.11    0.50
  C194                 CHANNEL     0.441     0  04:19      0.40    0.11    0.55
  C195                 CHANNEL     0.441     0  04:19      0.46    0.05    0.43
  C196                 CONDUIT     0.437     0  04:15      0.45    0.18    0.42
  C197                 CONDUIT     0.453     0  04:16      0.32    0.12    0.59
  C198                 CHANNEL     0.460     0  04:15      0.34    0.05    0.33
  C199                 CHANNEL     0.460     0  04:15      0.39    1.11    0.37
  C200                 CHANNEL     0.460     0  04:15      0.43    1.00    0.34
  C201                 CHANNEL     0.460     0  04:16      0.46    0.08    0.27
  C202                 CHANNEL     0.461     0  04:15      0.46    0.07    0.27
  C203                 CHANNEL     0.461     0  04:15      0.47    0.08    0.27
  C204                 CHANNEL     0.462     0  04:09      0.95    0.08    0.27
  C205                 CONDUIT     0.484     0  04:05      0.39    0.18    0.34
  C206                 CHANNEL     0.501     0  04:05      0.81    0.08    0.28
  C207                 CHANNEL     0.498     0  04:05      0.48    0.08    0.28
  C208                 CHANNEL     0.494     0  04:06      0.50    0.08    0.27
  C209                 CHANNEL     0.492     0  04:07      0.54    0.08    0.25
  C210                 CHANNEL     0.492     0  04:07      0.79    0.08    0.29
  C211                 CHANNEL     0.493     0  04:07      0.94    0.10    0.26
  C212                 CONDUIT     0.519     0  04:05      0.42    0.17    0.31
  C213                 CHANNEL     0.519     0  04:05      0.74    0.10    0.26
  C214                 CHANNEL     0.518     0  04:05      1.28    0.10    0.23
  C215                 CONDUIT     0.511     0  04:08      0.48    0.16    0.29
  C216                 CONDUIT     0.508     0  04:10      0.58    0.21    0.26
  C217                 CONDUIT     0.509     0  04:10      0.51    0.11    0.20
  C218                 CHANNEL     0.522     0  04:10      0.56    0.10    0.28
  C219                 CHANNEL     0.522     0  04:11      0.56    0.10    0.28
  C220                 CHANNEL     0.521     0  04:12      0.57    0.10    0.28
  C221                 CHANNEL     0.522     0  04:13      0.69    0.10    0.24
  C222                 CONDUIT     0.527     0  04:13      0.72    0.19    0.21
  C223                 CHANNEL     0.535     0  04:13      0.86    0.04    0.23
  C224                 CHANNEL     0.535     0  04:14      0.62    0.19    0.42
  C225                 CHANNEL     0.534     0  04:15      0.61    0.19    0.41
  C226                 CHANNEL     0.534     0  04:16      1.49    0.19    0.35
  C227                 CONDUIT     0.535     0  04:19      0.47    0.24    0.37
  C228                 CHANNEL     0.535     0  04:22      0.83    0.12    0.31
  C229                 CONDUIT     0.543     0  04:20      0.31    0.05    0.23
  C230                 CHANNEL     0.543     0  04:20      0.96    0.12    0.33
  C231                 CHANNEL     0.543     0  04:20      0.78    0.12    0.33
  C232                 CHANNEL     0.543     0  04:21      1.06    0.12    0.33
  C233                 CHANNEL     0.542     0  04:23      0.78    0.12    0.33
  C234                 CONDUIT     0.552     0  04:24      0.50    0.13    0.27
  C235                 CHANNEL     0.554     0  04:24      0.77    0.12    0.36
  C236                 CHANNEL     0.722     0  04:20      0.82    0.19    0.40
  C237                 CHANNEL     0.720     0  04:21      0.81    0.19    0.40
  C238                 CHANNEL     0.725     0  04:21      0.82    0.19    0.40
  C239                 CHANNEL     0.724     0  04:22      0.81    0.19    0.40
  C240                 CHANNEL     0.723     0  04:22      1.13    0.19    0.40
  C241                 CHANNEL     0.723     0  04:22      1.44    0.19    0.41
  C242                 CONDUIT     0.724     0  04:22      0.94    0.14    0.33
  C243                 CHANNEL     0.723     0  04:24      0.86    0.19    0.38
  C244                 CHANNEL     0.721     0  04:25      0.95    0.07    0.22
  C245                 CONDUIT     0.720     0  04:25      0.58    0.11    0.32
  C246                 CHANNEL     0.814     0  04:30      0.66    0.14    0.39
  C247                 CHANNEL     0.813     0  04:31      0.65    0.14    0.40
  C248                 CHANNEL     0.813     0  04:32      1.06    0.14    0.36
  C249                 CHANNEL     0.812     0  04:32      5.19    0.18    0.32
  C250                 CONDUIT     0.812     0  04:33      0.77    0.16    0.26
  C251                 CONDUIT     0.812     0  04:33      0.74    0.16    0.27
  C252                 CHANNEL     0.819     0  04:32      0.97    0.18    0.32
  C253                 CHANNEL     0.819     0  04:33      0.82    0.10    0.31
  C254                 CHANNEL     0.819     0  04:33      3.79    0.10    0.31
  C255                 CHANNEL     0.818     0  04:34      2.21    0.10    0.32
  C256                 CHANNEL     0.833     0  04:34      3.82    0.10    0.34
  C257                 CHANNEL     0.833     0  04:34      6.22    0.10    0.36
  C258                 CONDUIT     0.832     0  04:34      0.66    0.17    0.31
  C259                 CHANNEL     0.832     0  04:35      2.16    0.10    0.41
  C260                 CHANNEL     0.831     0  04:35      3.03    0.10    0.45
  C261                 CHANNEL     0.832     0  04:36      0.92    0.10    0.48
  C262                 CHANNEL     0.832     0  04:36      1.20    0.10    0.54
  C263                 CHANNEL     0.832     0  04:37      0.73    0.11    0.38
  C264                 CONDUIT     0.833     0  04:37      0.51    0.24    0.39
  C265                 CHANNEL     0.866     0  04:36      0.82    0.11    0.31
  C266                 CHANNEL     0.866     0  04:36      1.09    0.09    0.33
  C267                 CHANNEL     0.866     0  04:37      1.17    0.09    0.33
  C268                 CHANNEL     0.866     0  04:37      0.87    0.09    0.33
  C269                 CHANNEL     0.866     0  04:37      0.98    0.09    0.33
  C270                 CHANNEL     0.866     0  04:38      0.87    0.09    0.33
  C271                 CHANNEL     0.866     0  04:38      0.87    0.09    0.33
  C272                 CHANNEL     0.866     0  04:38      1.21    0.09    0.33
  C273                 CHANNEL     0.869     0  04:38      1.07    0.09    0.33
  C274                 CHANNEL     0.869     0  04:38      0.99    0.09    0.33
  C275                 CHANNEL     0.869     0  04:39      0.98    0.09    0.33
  C276                 CHANNEL     0.868     0  04:39      0.95    0.09    0.32
  C277                 CHANNEL     0.868     0  04:39      0.95    0.09    0.31
  C278                 CHANNEL     0.868     0  04:39      1.02    0.09    0.30
  C279                 CHANNEL     0.868     0  04:40      1.16    0.09    0.27
  C280                 CHANNEL     0.868     0  04:40      0.83    0.16    0.35
  C281                 CHANNEL     0.871     0  04:40      0.83    0.16    0.35
  C282                 CHANNEL     0.870     0  04:40      0.83    0.16    0.35
  C283                 CHANNEL     0.871     0  04:40      0.84    0.16    0.35
  C284                 CHANNEL     0.871     0  04:40      0.85    0.16    0.34
  C285                 CHANNEL     0.871     0  04:40      0.87    0.16    0.34
  C286                 CHANNEL     0.871     0  04:40      1.12    0.12    0.33
  C287                 CHANNEL     0.871     0  04:41      1.12    0.12    0.33
  C288                 CHANNEL     0.871     0  04:41      1.12    0.12    0.33
  C289                 CHANNEL     0.871     0  04:41      1.12    0.12    0.33
  C290                 CHANNEL     0.871     0  04:41      1.12    0.12    0.33
  C291                 CHANNEL     0.871     0  04:42      1.11    0.12    0.33
  C292                 CHANNEL     0.874     0  04:42      1.12    0.12    0.33
  C293                 CHANNEL     0.874     0  04:42      1.12    0.12    0.33
  C294                 CHANNEL     0.874     0  04:42      1.12    0.12    0.33
  C295                 CHANNEL     0.874     0  04:42      1.12    0.12    0.33
  C296                 CHANNEL     0.874     0  04:42      1.12    0.12    0.33
  C297                 CHANNEL     0.874     0  04:43      1.12    0.12    0.33
  C298                 CHANNEL     0.874     0  04:43      1.11    0.12    0.33
  C299                 CHANNEL     0.874     0  04:43      1.10    0.12    0.34
  C300                 CHANNEL     0.874     0  04:43      1.03    0.12    0.35
  C301                 CHANNEL     0.874     0  04:43      1.36    0.09    0.27
  C302                 CHANNEL     0.654     0  04:15      0.72    0.05    0.31
  C303                 CHANNEL     0.439     0  04:18      0.58    0.11    0.44
  C353                 CONDUIT     0.007     0  04:15      1.07    0.00    0.03
  
  
  ***************************
  Flow Classification Summary
  ***************************
  
  -------------------------------------------------------------------------------------
                      Adjusted    ---------- Fraction of Time in Flow Class ---------- 
                       /Actual         Up    Down  Sub   Sup   Up    Down  Norm  Inlet 
  Conduit               Length    Dry  Dry   Dry   Crit  Crit  Crit  Crit  Ltd   Ctrl  
  -------------------------------------------------------------------------------------
  FID1123                 1.00   0.21  0.00  0.00  0.00  0.00  0.00  0.79  0.00  0.00
  FID1139                 1.00   0.21  0.00  0.00  0.00  0.00  0.00  0.79  0.00  0.00
  FID1148                 1.00   0.19  0.00  0.00  0.58  0.00  0.00  0.23  0.00  0.00
  FID1149                 1.00   0.20  0.00  0.00  0.00  0.00  0.00  0.80  0.00  0.00
  FID3364                 1.00   0.10  0.10  0.00  0.81  0.00  0.00  0.00  0.71  0.00
  FID3671                 1.00   0.25  0.00  0.00  0.00  0.00  0.00  0.75  0.00  0.00
  FID3672                 1.00   0.23  0.00  0.00  0.00  0.00  0.00  0.77  0.00  0.00
  FID3762                 1.00   0.02  0.21  0.00  0.53  0.18  0.00  0.07  0.60  0.00
  FID3765                 1.00   0.01  0.21  0.00  0.54  0.21  0.00  0.03  0.62  0.00
  FID4112                 1.00   0.21  0.00  0.00  0.00  0.00  0.00  0.79  0.00  0.00
  FID4186                 1.00   0.27  0.00  0.00  0.45  0.10  0.00  0.18  0.29  0.00
  FID4187                 1.00   0.28  0.00  0.00  0.00  0.00  0.00  0.72  0.00  0.00
  FID4201                 1.00   0.21  0.00  0.00  0.69  0.00  0.00  0.09  0.48  0.00
  FID4202                 1.00   0.22  0.00  0.00  0.00  0.00  0.00  0.78  0.00  0.00
  FID4203                 1.00   0.22  0.78  0.00  0.00  0.00  0.00  0.00  0.00  0.00
  FID4299                 1.00   0.27  0.00  0.00  0.00  0.00  0.00  0.73  0.00  0.00
  FID4372                 1.00   0.05  0.17  0.00  0.66  0.12  0.00  0.00  0.68  0.00
  FID4498                 1.00   0.11  0.09  0.00  0.70  0.10  0.00  0.00  0.70  0.00
  FID4806                 1.00   0.23  0.00  0.00  0.00  0.00  0.00  0.77  0.00  0.00
  FID4807                 1.00   0.30  0.00  0.00  0.00  0.00  0.00  0.70  0.00  0.00
  FID4882                 1.00   0.92  0.08  0.00  0.00  0.00  0.00  0.00  0.00  0.00
  FID4884                 1.00   0.20  0.00  0.00  0.00  0.00  0.00  0.80  0.00  0.00
  FID4914                 1.00   0.08  0.15  0.00  0.77  0.00  0.00  0.00  0.67  0.00
  FID4915                 1.00   0.28  0.00  0.00  0.69  0.00  0.00  0.03  0.59  0.00
  FID4916                 1.00   0.31  0.00  0.00  0.61  0.00  0.00  0.08  0.26  0.00
  FID4917                 1.00   0.34  0.00  0.00  0.00  0.00  0.00  0.66  0.00  0.00
  FID5307                 1.00   0.27  0.00  0.00  0.70  0.00  0.00  0.03  0.49  0.00
  FID5308                 1.00   0.27  0.00  0.00  0.00  0.00  0.00  0.73  0.00  0.00
  FID5312                 1.00   0.28  0.00  0.00  0.00  0.00  0.00  0.72  0.00  0.00
  FID5865                 1.00   0.19  0.00  0.00  0.00  0.00  0.00  0.81  0.00  0.00
  C9                      1.00   0.00  0.00  0.00  1.00  0.00  0.00  0.00  0.00  0.00
  C12                     1.00   0.00  0.00  0.00  1.00  0.00  0.00  0.00  0.00  0.00
  C13                     1.00   0.00  0.00  0.00  1.00  0.00  0.00  0.00  0.00  0.00
  C14                     1.00   0.00  0.00  0.00  1.00  0.00  0.00  0.00  0.00  0.00
  C52                     1.00   0.03  0.20  0.00  0.76  0.01  0.00  0.00  0.68  0.00
  C130                    1.00   0.22  0.00  0.00  0.58  0.00  0.00  0.20  0.14  0.00
  C131                    1.00   0.28  0.00  0.00  0.00  0.00  0.00  0.72  0.00  0.00
  C139                    1.00   0.19  0.81  0.00  0.00  0.00  0.00  0.00  0.00  0.00
  C191                    1.00   0.00  0.00  0.00  1.00  0.00  0.00  0.00  0.00  0.00
  C193                    1.00   0.00  0.00  0.00  1.00  0.00  0.00  0.00  0.00  0.00
  C194                    1.00   0.00  0.00  0.00  1.00  0.00  0.00  0.00  0.00  0.00
  C195                    1.00   0.00  0.00  0.00  0.99  0.00  0.00  0.00  0.00  0.00
  C196                    1.00   0.00  0.00  0.00  1.00  0.00  0.00  0.00  0.00  0.00
  C197                    1.00   0.01  0.00  0.00  0.99  0.00  0.00  0.00  0.00  0.00
  C198                    1.00   0.01  0.00  0.00  0.99  0.00  0.00  0.00  0.00  0.00
  C199                    1.00   0.01  0.00  0.00  0.99  0.00  0.00  0.00  0.00  0.00
  C200                    1.00   0.01  0.00  0.00  0.99  0.00  0.00  0.00  0.00  0.00
  C201                    1.00   0.01  0.00  0.00  0.99  0.00  0.00  0.00  0.00  0.00
  C202                    1.00   0.01  0.00  0.00  0.99  0.00  0.00  0.00  0.00  0.00
  C203                    1.00   0.01  0.00  0.00  0.99  0.00  0.00  0.00  0.00  0.00
  C204                    1.00   0.01  0.00  0.00  0.99  0.00  0.00  0.00  0.00  0.00
  C205                    1.00   0.01  0.00  0.00  0.99  0.00  0.00  0.00  0.00  0.00
  C206                    1.00   0.01  0.00  0.00  0.99  0.00  0.00  0.00  0.00  0.00
  C207                    1.00   0.01  0.00  0.00  0.99  0.00  0.00  0.00  0.00  0.00
  C208                    1.00   0.01  0.00  0.00  0.99  0.00  0.00  0.00  0.00  0.00
  C209                    1.00   0.01  0.00  0.00  0.99  0.00  0.00  0.00  0.00  0.00
  C210                    1.00   0.02  0.00  0.00  0.98  0.00  0.00  0.00  0.00  0.00
  C211                    1.00   0.02  0.00  0.00  0.98  0.00  0.00  0.00  0.00  0.00
  C212                    1.00   0.02  0.00  0.00  0.98  0.00  0.00  0.00  0.00  0.00
  C213                    1.00   0.02  0.00  0.00  0.98  0.00  0.00  0.00  0.00  0.00
  C214                    1.00   0.02  0.00  0.00  0.98  0.00  0.00  0.00  0.00  0.00
  C215                    1.00   0.02  0.00  0.00  0.98  0.00  0.00  0.00  0.91  0.00
  C216                    1.00   0.02  0.00  0.00  0.98  0.00  0.00  0.00  0.00  0.00
  C217                    1.00   0.02  0.00  0.00  0.98  0.00  0.00  0.00  0.00  0.00
  C218                    1.00   0.02  0.00  0.00  0.98  0.00  0.00  0.00  0.00  0.00
  C219                    1.00   0.02  0.00  0.00  0.98  0.00  0.00  0.00  0.00  0.00
  C220                    1.00   0.03  0.00  0.00  0.97  0.00  0.00  0.00  0.00  0.00
  C221                    1.00   0.03  0.00  0.00  0.97  0.00  0.00  0.00  0.00  0.00
  C222                    1.00   0.03  0.00  0.00  0.97  0.00  0.00  0.00  0.00  0.00
  C223                    1.00   0.03  0.00  0.00  0.97  0.00  0.00  0.00  0.90  0.00
  C224                    1.00   0.03  0.00  0.00  0.97  0.00  0.00  0.00  0.00  0.00
  C225                    1.00   0.03  0.00  0.00  0.97  0.00  0.00  0.00  0.00  0.00
  C226                    1.00   0.03  0.00  0.00  0.97  0.00  0.00  0.00  0.00  0.00
  C227                    1.00   0.03  0.00  0.00  0.97  0.00  0.00  0.00  0.72  0.00
  C228                    1.00   0.03  0.00  0.00  0.97  0.00  0.00  0.00  0.00  0.00
  C229                    1.00   0.04  0.00  0.00  0.96  0.00  0.00  0.00  0.00  0.00
  C230                    1.00   0.04  0.00  0.00  0.96  0.00  0.00  0.00  0.00  0.00
  C231                    1.00   0.04  0.00  0.00  0.96  0.00  0.00  0.00  0.74  0.00
  C232                    1.00   0.04  0.00  0.00  0.96  0.00  0.00  0.00  0.01  0.00
  C233                    1.00   0.04  0.00  0.00  0.96  0.00  0.00  0.00  0.03  0.00
  C234                    1.00   0.04  0.00  0.00  0.96  0.00  0.00  0.00  0.00  0.00
  C235                    1.00   0.04  0.00  0.00  0.96  0.00  0.00  0.00  0.00  0.00
  C236                    1.00   0.05  0.00  0.00  0.95  0.00  0.00  0.00  0.01  0.00
  C237                    1.00   0.05  0.00  0.00  0.95  0.00  0.00  0.00  0.54  0.00
  C238                    1.00   0.05  0.00  0.00  0.95  0.00  0.00  0.00  0.64  0.00
  C239                    1.00   0.05  0.00  0.00  0.95  0.00  0.00  0.00  0.00  0.00
  C240                    1.00   0.05  0.00  0.00  0.95  0.00  0.00  0.00  0.00  0.00
  C241                    1.00   0.05  0.00  0.00  0.95  0.00  0.00  0.00  0.00  0.00
  C242                    1.00   0.05  0.00  0.00  0.95  0.00  0.00  0.00  0.00  0.00
  C243                    1.00   0.05  0.00  0.00  0.95  0.00  0.00  0.00  0.00  0.00
  C244                    1.00   0.05  0.00  0.00  0.94  0.01  0.00  0.00  0.00  0.00
  C245                    1.00   0.05  0.00  0.00  0.95  0.00  0.00  0.00  0.00  0.00
  C246                    1.00   0.06  0.00  0.00  0.94  0.00  0.00  0.00  0.78  0.00
  C247                    1.00   0.06  0.00  0.00  0.93  0.00  0.00  0.00  0.00  0.00
  C248                    1.00   0.07  0.00  0.00  0.93  0.01  0.00  0.00  0.00  0.00
  C249                    1.00   0.08  0.00  0.00  0.92  0.00  0.00  0.00  0.00  0.00
  C250                    1.00   0.08  0.00  0.00  0.92  0.00  0.00  0.00  0.00  0.00
  C251                    1.00   0.09  0.00  0.00  0.91  0.00  0.00  0.00  0.00  0.00
  C252                    1.00   0.09  0.00  0.00  0.91  0.00  0.00  0.00  0.00  0.00
  C253                    1.00   0.09  0.00  0.00  0.91  0.00  0.00  0.00  0.51  0.00
  C254                    1.00   0.10  0.00  0.00  0.90  0.00  0.00  0.00  0.54  0.00
  C255                    1.00   0.10  0.00  0.00  0.90  0.00  0.00  0.00  0.64  0.00
  C256                    1.00   0.10  0.00  0.00  0.90  0.00  0.00  0.00  0.00  0.00
  C257                    1.00   0.10  0.00  0.00  0.90  0.00  0.00  0.00  0.00  0.00
  C258                    1.00   0.10  0.00  0.00  0.90  0.00  0.00  0.00  0.00  0.00
  C259                    1.00   0.11  0.00  0.00  0.89  0.00  0.00  0.00  0.00  0.00
  C260                    1.00   0.11  0.00  0.00  0.89  0.00  0.00  0.00  0.00  0.00
  C261                    1.00   0.11  0.00  0.00  0.89  0.00  0.00  0.00  0.00  0.00
  C262                    1.00   0.11  0.00  0.00  0.89  0.00  0.00  0.00  0.00  0.00
  C263                    1.00   0.11  0.00  0.00  0.89  0.00  0.00  0.00  0.00  0.00
  C264                    1.00   0.11  0.00  0.00  0.88  0.00  0.00  0.00  0.00  0.00
  C265                    1.00   0.12  0.00  0.00  0.88  0.00  0.00  0.00  0.00  0.00
  C266                    1.00   0.12  0.00  0.00  0.88  0.00  0.00  0.00  0.00  0.00
  C267                    1.00   0.12  0.00  0.00  0.88  0.00  0.00  0.00  0.00  0.00
  C268                    1.00   0.12  0.00  0.00  0.88  0.00  0.00  0.00  0.01  0.00
  C269                    1.00   0.13  0.00  0.00  0.87  0.00  0.00  0.00  0.01  0.00
  C270                    1.00   0.13  0.00  0.00  0.87  0.00  0.00  0.00  0.01  0.00
  C271                    1.00   0.13  0.00  0.00  0.87  0.00  0.00  0.00  0.00  0.00
  C272                    1.00   0.13  0.00  0.00  0.87  0.00  0.00  0.00  0.00  0.00
  C273                    1.00   0.13  0.00  0.00  0.87  0.00  0.00  0.00  0.03  0.00
  C274                    1.00   0.13  0.00  0.00  0.87  0.00  0.00  0.00  0.00  0.00
  C275                    1.00   0.13  0.00  0.00  0.87  0.00  0.00  0.00  0.00  0.00
  C276                    1.00   0.13  0.00  0.00  0.86  0.00  0.00  0.00  0.00  0.00
  C277                    1.00   0.14  0.00  0.00  0.86  0.00  0.00  0.00  0.00  0.00
  C278                    1.00   0.14  0.00  0.00  0.86  0.00  0.00  0.00  0.00  0.00
  C279                    1.00   0.14  0.00  0.00  0.86  0.00  0.00  0.00  0.00  0.00
  C280                    1.00   0.14  0.00  0.00  0.86  0.00  0.00  0.00  0.02  0.00
  C281                    1.00   0.14  0.00  0.00  0.86  0.00  0.00  0.00  0.01  0.00
  C282                    1.00   0.14  0.00  0.00  0.86  0.00  0.00  0.00  0.00  0.00
  C283                    1.00   0.14  0.00  0.00  0.86  0.00  0.00  0.00  0.00  0.00
  C284                    1.00   0.14  0.00  0.00  0.86  0.00  0.00  0.00  0.00  0.00
  C285                    1.00   0.14  0.00  0.00  0.86  0.00  0.00  0.00  0.00  0.00
  C286                    1.00   0.15  0.00  0.00  0.85  0.00  0.00  0.00  0.46  0.00
  C287                    1.00   0.15  0.00  0.00  0.85  0.00  0.00  0.00  0.46  0.00
  C288                    1.00   0.15  0.00  0.00  0.85  0.00  0.00  0.00  0.45  0.00
  C289                    1.00   0.15  0.00  0.00  0.85  0.00  0.00  0.00  0.45  0.00
  C290                    1.00   0.15  0.00  0.00  0.85  0.00  0.00  0.00  0.45  0.00
  C291                    1.00   0.15  0.00  0.00  0.85  0.00  0.00  0.00  0.00  0.00
  C292                    1.00   0.15  0.00  0.00  0.85  0.00  0.00  0.00  0.45  0.00
  C293                    1.00   0.15  0.00  0.00  0.85  0.00  0.00  0.00  0.45  0.00
  C294                    1.00   0.15  0.00  0.00  0.85  0.00  0.00  0.00  0.45  0.00
  C295                    1.00   0.15  0.00  0.00  0.84  0.00  0.00  0.00  0.37  0.00
  C296                    1.00   0.16  0.00  0.00  0.84  0.00  0.00  0.00  0.43  0.00
  C297                    1.00   0.16  0.00  0.00  0.84  0.00  0.00  0.00  0.44  0.00
  C298                    1.00   0.16  0.00  0.00  0.84  0.00  0.00  0.00  0.41  0.00
  C299                    1.00   0.16  0.00  0.00  0.84  0.00  0.00  0.00  0.00  0.00
  C300                    1.00   0.16  0.00  0.00  0.84  0.00  0.00  0.00  0.01  0.00
  C301                    1.00   0.16  0.00  0.00  0.84  0.00  0.00  0.00  0.00  0.00
  C302                    1.00   0.00  0.00  0.00  1.00  0.00  0.00  0.00  0.00  0.00
  C303                    1.00   0.00  0.00  0.00  1.00  0.00  0.00  0.00  0.00  0.00
  C353                    1.00   0.23  0.00  0.00  0.00  0.00  0.00  0.77  0.00  0.00
  
  
  *************************
  Conduit Surcharge Summary
  *************************
  
  ----------------------------------------------------------------------------
                                                           Hours        Hours 
                         --------- Hours Full --------   Above Full   Capacity
  Conduit                Both Ends  Upstream  Dnstream   Normal Flow   Limited
  ----------------------------------------------------------------------------
  C199                        0.01      0.01      0.01      8.13         0.01
  
  
  ***************************
  Link Pollutant Load Summary
  ***************************
  
  --------------------------------------------------------------
                                 TSS            TP           TDP
  Link                            kg            kg            kg
  --------------------------------------------------------------
  FID1123                     31.621         0.011         0.004
  FID1139                    217.264         0.052         0.028
  FID1148                    308.133         0.099         0.037
  FID1149                    308.087         0.098         0.036
  FID3364                    337.633         0.108         0.038
  FID3671                     21.703         0.006         0.001
  FID3672                     66.672         0.022         0.007
  FID3762                     77.324         0.066         0.009
  FID3765                    306.580         0.121         0.029
  FID4112                    149.795         0.098         0.052
  FID4186                     20.601         0.011         0.001
  FID4187                     18.460         0.010         0.001
  FID4201                     81.662         0.081         0.042
  FID4202                     78.131         0.080         0.042
  FID4203                      0.000         0.000         0.000
  FID4299                      7.234         0.006         0.002
  FID4372                    172.500         0.344         0.357
  FID4498                     59.115         0.037         0.052
  FID4806                   1671.996         0.551         0.249
  FID4807                      0.001         0.001         0.000
  FID4882                      0.000         0.000         0.000
  FID4884                     99.887         0.028         0.015
  FID4914                     12.997         0.012         0.001
  FID4915                      4.165         0.003         0.001
  FID4916                      2.034         0.002         0.001
  FID4917                      1.363         0.002         0.001
  FID5307                     13.939         0.006         0.003
  FID5308                      7.487         0.005         0.001
  FID5312                     12.799         0.006         0.003
  FID5865                    505.699         0.087         0.371
  C9                         140.813         1.058         1.281
  C12                        139.699         1.047         1.267
  C13                        139.195         1.047         1.266
  C14                         91.604         0.689         0.836
  C52                        449.067         0.130         0.042
  C130                        29.923         0.010         0.005
  C131                        29.853         0.009         0.005
  C139                         0.000         0.000         0.000
  C191                       179.464         0.713         0.838
  C193                       178.098         0.699         0.820
  C194                       177.451         0.695         0.817
  C195                       177.238         0.693         0.815
  C196                       158.064         0.709         0.840
  C197                       483.577         0.811         0.841
  C198                       560.668         0.876         0.848
  C199                       560.473         0.873         0.845
  C200                       560.192         0.871         0.843
  C201                       559.957         0.868         0.839
  C202                       559.581         0.870         0.836
  C203                       559.348         0.867         0.834
  C204                       559.136         0.867         0.833
  C205                       858.967         1.027         0.914
  C206                      1008.351         1.124         0.965
  C207                      1009.603         1.122         0.961
  C208                      1012.939         1.123         0.957
  C209                      1012.225         1.121         0.955
  C210                      1012.015         1.120         0.954
  C211                      1011.767         1.119         0.952
  C212                      1415.771         1.336         1.053
  C213                      1423.612         1.343         1.057
  C214                      1424.007         1.341         1.055
  C215                      1447.884         1.348         1.038
  C216                      1441.729         1.343         1.037
  C217                      1519.947         1.422         1.077
  C218                      1968.543         1.550         1.117
  C219                      1969.431         1.548         1.114
  C220                      1969.645         1.545         1.109
  C221                      1969.999         1.555         1.106
  C222                      2207.567         1.613         1.127
  C223                      2501.398         1.708         1.161
  C224                      2505.511         1.704         1.155
  C225                      2503.349         1.707         1.152
  C226                      2504.401         1.704         1.148
  C227                      2537.772         1.707         1.128
  C228                      2528.720         1.719         1.127
  C229                      2617.756         1.797         1.142
  C230                      2624.288         1.802         1.143
  C231                      2627.776         1.798         1.136
  C232                      2625.852         1.795         1.132
  C233                      2633.176         1.794         1.120
  C234                      2629.861         1.795         1.120
  C235                      2660.318         1.810         1.126
  C236                      2832.604         2.154         1.482
  C237                      2835.885         2.152         1.479
  C238                      2867.506         2.205         1.492
  C239                      2865.467         2.203         1.490
  C240                      2864.100         2.203         1.490
  C241                      2871.533         2.208         1.491
  C242                      2885.285         2.212         1.492
  C243                      2915.820         2.216         1.482
  C244                      2911.480         2.229         1.481
  C245                      2912.085         2.228         1.479
  C246                      4623.681         2.777         1.716
  C247                      4602.746         2.783         1.711
  C248                      4611.631         2.780         1.706
  C249                      4599.972         2.778         1.704
  C250                      4608.935         2.782         1.704
  C251                      4610.001         2.782         1.703
  C252                      4946.869         2.890         1.740
  C253                      4952.958         2.888         1.737
  C254                      4955.225         2.886         1.733
  C255                      4953.693         2.883         1.730
  C256                      5010.682         2.919         1.780
  C257                      5007.191         2.922         1.779
  C258                      5007.732         2.921         1.778
  C259                      5012.964         2.919         1.775
  C260                      5007.999         2.918         1.773
  C261                      5109.093         2.945         1.786
  C262                      5115.631         2.941         1.779
  C263                      5110.798         2.938         1.776
  C264                      5111.433         2.938         1.773
  C265                      5615.087         3.025         2.143
  C266                      5617.105         3.023         2.141
  C267                      5616.512         3.022         2.139
  C268                      5618.801         3.020         2.137
  C269                      5646.516         3.031         2.139
  C270                      5648.881         3.029         2.138
  C271                      5646.906         3.029         2.137
  C272                      5646.592         3.029         2.136
  C273                      5957.824         3.126         2.171
  C274                      5957.351         3.125         2.169
  C275                      5956.880         3.124         2.167
  C276                      5956.712         3.123         2.165
  C277                      5956.183         3.122         2.164
  C278                      5956.125         3.121         2.163
  C279                      5956.572         3.120         2.162
  C280                      5955.975         3.120         2.161
  C281                      6172.985         3.171         2.188
  C282                      6173.745         3.170         2.187
  C283                      6203.655         3.179         2.191
  C284                      6203.997         3.178         2.190
  C285                      6204.504         3.177         2.189
  C286                      6204.919         3.176         2.187
  C287                      6205.057         3.175         2.186
  C288                      6204.793         3.175         2.185
  C289                      6204.778         3.174         2.184
  C290                      6204.931         3.173         2.183
  C291                      6204.201         3.173         2.182
  C292                      6322.260         3.196         2.202
  C293                      6322.126         3.195         2.201
  C294                      6322.428         3.194         2.200
  C295                      6321.842         3.194         2.199
  C296                      6322.076         3.194         2.199
  C297                      6322.584         3.193         2.198
  C298                      6322.751         3.192         2.197
  C299                      6322.402         3.192         2.196
  C300                      6322.898         3.191         2.195
  C301                      6322.592         3.190         2.194
  C302                       140.399         1.055         1.277
  C303                       178.976         0.707         0.831
  C353                       116.896         0.023         0.021
  

  Analysis begun on:  Tue Oct 10 16:55:11 2017
  Analysis ended on:  Tue Oct 10 16:55:24 2017
  Total elapsed time: 00:00:13