
  EPA STORM WATER MANAGEMENT MODEL - VERSION 5.1 (Build 5.1.010)
  --------------------------------------------------------------

  WARNING 04: minimum elevation drop used for Conduit C199
  WARNING 04: minimum elevation drop used for Conduit C200
  WARNING 02: maximum depth increased for Node FID1955
  WARNING 02: maximum depth increased for Node FID1960
  WARNING 02: maximum depth increased for Node FID1965
  WARNING 02: maximum depth increased for Node FID1968
  WARNING 02: maximum depth increased for Node FID2244
  WARNING 02: maximum depth increased for Node FID2442
  WARNING 02: maximum depth increased for Node FID2446
  WARNING 02: maximum depth increased for Node FID5504
  WARNING 02: maximum depth increased for Node FID5527
  WARNING 02: maximum depth increased for Node AFID6926
  WARNING 02: maximum depth increased for Node AFID7376
  
  *********************************************************
  NOTE: The summary statistics displayed in this report are
  based on results found at every computational time step,  
  not just on results from each reporting time step.
  *********************************************************
  
  ****************
  Analysis Options
  ****************
  Flow Units ............... CMS
  Process Models:
    Rainfall/Runoff ........ YES
    RDII ................... NO
    Snowmelt ............... NO
    Groundwater ............ NO
    Flow Routing ........... YES
    Ponding Allowed ........ YES
    Water Quality .......... YES
  Infiltration Method ...... GREEN_AMPT
  Flow Routing Method ...... DYNWAVE
  Starting Date ............ MAY-06-2016 15:00:00
  Ending Date .............. MAY-07-2016 00:00:00
  Antecedent Dry Days ...... 0.0
  Report Time Step ......... 00:01:00
  Wet Time Step ............ 00:01:00
  Dry Time Step ............ 01:00:00
  Routing Time Step ........ 5.00 sec
  Variable Time Step ....... YES
  Maximum Trials ........... 8
  Number of Threads ........ 3
  Head Tolerance ........... 0.001500 m
  
  
  **************************        Volume         Depth
  Runoff Quantity Continuity     hectare-m            mm
  **************************     ---------       -------
  Total Precipitation ......         2.583         6.709
  Evaporation Loss .........         0.000         0.000
  Infiltration Loss ........         1.069         2.777
  Surface Runoff ...........         0.223         0.578
  Final Storage ............         1.291         3.352
  Continuity Error (%) .....         0.028
  
  
  **************************           TSS            TP           TDP
  Runoff Quality Continuity             kg            kg            kg
  **************************    ----------    ----------    ----------
  Initial Buildup ..........         0.000         0.000         0.000
  Surface Buildup ..........     22072.807        10.331        13.495
  Wet Deposition ...........         0.000         0.000         0.000
  Sweeping Removal .........         0.000         0.000         0.000
  Infiltration Loss ........         0.000         0.000         0.000
  BMP Removal ..............         0.945         0.000         0.000
  Surface Runoff ...........      9450.983         1.661         2.300
  Remaining Buildup ........     12620.879         8.670        11.196
  Continuity Error (%) .....         0.000         0.000         0.000
  
  
  **************************        Volume        Volume
  Flow Routing Continuity        hectare-m      10^6 ltr
  **************************     ---------     ---------
  Dry Weather Inflow .......         0.000         0.000
  Wet Weather Inflow .......         0.223         2.227
  Groundwater Inflow .......         0.000         0.000
  RDII Inflow ..............         0.000         0.000
  External Inflow ..........         1.384        13.843
  External Outflow .........         0.876         8.761
  Flooding Loss ............         0.000         0.000
  Evaporation Loss .........         0.000         0.000
  Exfiltration Loss ........         0.000         0.000
  Initial Stored Volume ....         0.000         0.000
  Final Stored Volume ......         0.739         7.387
  Continuity Error (%) .....        -0.489
  
  
  **************************           TSS            TP           TDP
  Quality Routing Continuity            kg            kg            kg
  **************************    ----------    ----------    ----------
  Dry Weather Inflow .......         0.000         0.000         0.000
  Wet Weather Inflow .......      8770.300         1.626         2.249
  Groundwater Inflow .......         0.000         0.000         0.000
  RDII Inflow ..............         0.000         0.000         0.000
  External Inflow ..........       137.985         1.039         1.284
  External Outflow .........      7261.676         2.096         2.703
  Flooding Loss ............         0.000         0.000         0.000
  Exfiltration Loss ........         0.000         0.000         0.000
  Mass Reacted .............         0.000         0.000         0.000
  Initial Stored Mass ......         0.000         0.000         0.000
  Final Stored Mass ........        86.835         0.485         0.755
  Continuity Error (%) .....        17.509         3.114         2.135
  
  
  *************************
  Highest Continuity Errors
  *************************
  Node FID2827 (9.80%)
  Node FID2824 (9.58%)
  Node J81 (2.48%)
  Node J72 (2.42%)
  Node J19 (2.30%)
  
  
  ***************************
  Time-Step Critical Elements
  ***************************
  Link C241 (88.69%)
  Link C14 (10.28%)
  
  
  ********************************
  Highest Flow Instability Indexes
  ********************************
  Link C241 (17)
  Link C240 (10)
  
  
  *************************
  Routing Time Step Summary
  *************************
  Minimum Time Step           :     0.15 sec
  Average Time Step           :     1.00 sec
  Maximum Time Step           :     5.00 sec
  Percent in Steady State     :     0.00
  Average Iterations per Step :     2.00
  Percent Not Converging      :     0.00
  
  
  ***************************
  Subcatchment Runoff Summary
  ***************************
  
  --------------------------------------------------------------------------------------------------------
                            Total      Total      Total      Total      Total       Total     Peak  Runoff
                           Precip      Runon       Evap      Infil     Runoff      Runoff   Runoff   Coeff
  Subcatchment                 mm         mm         mm         mm         mm    10^6 ltr      CMS
  --------------------------------------------------------------------------------------------------------
  S0                         5.84       0.00       0.00       4.98       0.12        0.00     0.00   0.021
  S1                         5.84       0.00       0.00       2.28       0.51        0.05     0.01   0.087
  S2                         6.35       0.00       0.00       1.51       0.69        0.12     0.03   0.108
  S3                         5.84       0.00       0.00       3.63       0.32        0.01     0.01   0.054
  S4                         5.84       0.00       0.00       2.50       0.48        0.05     0.03   0.082
  S6                         6.35       0.00       0.00      -0.13       0.83        0.02     0.00   0.131
  S7                         6.35       0.00       0.00       1.63       0.73        0.29     0.07   0.116
  S8                         6.35       0.00       0.00      -0.13       0.83        0.00     0.00   0.131
  S9                         6.35       0.00       0.00       1.31       0.72        0.00     0.00   0.113
  S10                        6.35       0.00       0.00       1.44       0.70        0.00     0.00   0.111
  S11                        6.35       0.00       0.00       4.86       0.21        0.00     0.00   0.034
  S12                        6.35       0.00       0.00       1.69       0.67        0.00     0.00   0.105
  S13                        6.35       0.00       0.00       1.97       0.62        0.05     0.01   0.098
  S14                        6.35       0.00       0.00       4.26       0.30        0.00     0.00   0.047
  S16                        6.35       0.00       0.00       0.57       2.31        0.13     0.03   0.363
  S17                        6.35       0.00       0.00       1.63       0.67        0.13     0.03   0.106
  S18                        6.35       0.00       0.00       0.91       0.78        0.00     0.00   0.123
  S19                        6.35       0.00       0.00       3.18       0.45        0.01     0.00   0.071
  S20                        6.35       0.00       0.00       1.81       0.65        0.00     0.00   0.102
  S21                        6.35       0.00       0.00       2.77       0.14        0.08     0.02   0.022
  S22                        6.35       0.00       0.00       1.24       0.73        0.00     0.00   0.115
  S23                        6.35       0.00       0.00       3.58       0.40        0.01     0.00   0.062
  S24                        6.35       0.00       0.00       3.35       0.43        0.01     0.00   0.068
  S25                        6.35       0.00       0.00       2.04       0.61        0.01     0.00   0.097
  S27                        6.35       0.00       0.00       2.43       0.56        0.00     0.00   0.088
  S28                        5.84       0.00       0.00       5.83       0.00        0.00     0.00   0.000
  S29                        5.84       0.00       0.00       5.79       0.01        0.00     0.00   0.001
  S30                        6.35       0.00       0.00       6.33       0.00        0.00     0.00   0.001
  S31                        6.35       0.00       0.00       6.34       0.00        0.00     0.00   0.000
  S32                        6.35       0.00       0.00       4.51       0.26        0.00     0.00   0.042
  S33                        6.35       0.00       0.00       1.05       0.76        0.01     0.00   0.119
  S34                        6.35       0.00       0.00       2.79       0.40        0.14     0.09   0.063
  S35                        6.35       0.00       0.00       3.33       0.43        0.00     0.00   0.068
  S36                        6.35       0.00       0.00       4.92       0.20        0.00     0.00   0.032
  S37                        6.35       0.00       0.00       1.40       0.71        0.00     0.00   0.111
  S39                        6.35       0.00       0.00       3.49       0.41        0.06     0.02   0.064
  S40                        6.35       0.00       0.00       4.23       0.30        0.01     0.00   0.048
  S41                        6.35       0.00       0.00       1.78       0.65        0.09     0.03   0.103
  S42                        6.35       0.00       0.00       2.21       0.59        0.06     0.02   0.093
  S43                        6.35       0.00       0.00       4.58       0.25        0.00     0.00   0.040
  S44                        6.35       0.00       0.00       2.29       0.58        0.13     0.04   0.091
  S45                        8.13       0.00       0.00       4.33       0.77        0.00     0.00   0.095
  S47                        8.13       0.00       0.00       3.18       1.00        0.04     0.04   0.123
  S48                        8.13       0.00       0.00       3.88       0.87        0.00     0.00   0.106
  S49                        8.13       0.00       0.00       3.34       0.95        0.18     0.08   0.117
  S51                        8.13       0.00       0.00       6.91       0.25        0.00     0.00   0.031
  S52                        8.13       0.00       0.00       3.68       0.89        0.06     0.05   0.110
  S53                        8.13       0.00       0.00       3.52       0.92        0.13     0.07   0.113
  S54                        8.13       0.00       0.00       4.64       0.70        0.07     0.03   0.086
  S55                        8.13       0.00       0.00       3.69       0.88        0.14     0.04   0.109
  S56                        8.13       0.00       0.00       5.74       0.49        0.00     0.00   0.060
  S57                        8.13       0.00       0.00       3.13       1.00        0.01     0.00   0.123
  S58                        8.13       0.00       0.00       4.05       0.81        0.03     0.01   0.100
  S59                        8.13       0.00       0.00       6.92       0.24        0.01     0.00   0.030
  S60                        8.13       0.00       0.00       5.63       0.50        0.01     0.00   0.061
  S61                        8.13       0.00       0.00       7.09       0.21        0.00     0.00   0.026
  S62                        8.13       0.00       0.00       6.57       0.31        0.01     0.01   0.039
  S63                        6.35       0.00       0.00       5.23       0.16        0.00     0.00   0.025
  S64                        6.35       0.00       0.00       2.51       0.55        0.01     0.00   0.087
  S65                        6.35       0.00       0.00       4.01       0.33        0.06     0.02   0.053
  
  
  ****************************
  Subcatchment Washoff Summary
  ****************************
  
  --------------------------------------------------------------
                                 TSS            TP           TDP
  Subcatchment                    kg            kg            kg
  --------------------------------------------------------------
  S0                           0.338         0.000         0.000
  S1                         292.830         0.019         0.023
  S2                         525.608         0.069         0.067
  S3                         116.577         0.006         0.007
  S4                         328.767         0.038         0.022
  S6                          52.900         0.012         0.005
  S7                        1009.191         0.072         0.285
  S8                           0.882         0.000         0.000
  S9                           1.049         0.000         0.000
  S10                         12.923         0.001         0.001
  S11                          0.263         0.000         0.000
  S12                          0.618         0.000         0.000
  S13                        218.637         0.022         0.019
  S14                         16.292         0.004         0.002
  S16                         97.541         0.162         0.067
  S17                        575.213         0.075         0.083
  S18                          1.090         0.000         0.000
  S19                         54.939         0.012         0.010
  S20                         19.382         0.002         0.004
  S21                          0.638         0.077         0.194
  S22                          6.937         0.000         0.001
  S23                         38.124         0.015         0.013
  S24                         69.288         0.003         0.004
  S25                         27.776         0.011         0.018
  S27                         21.105         0.003         0.004
  S28                          0.000         0.000         0.000
  S29                          0.000         0.000         0.000
  S30                          0.000         0.000         0.000
  S31                          0.000         0.000         0.000
  S32                          8.435         0.003         0.001
  S33                         43.065         0.006         0.007
  S34                        868.066         0.042         0.314
  S35                         12.359         0.002         0.002
  S36                         21.563         0.008         0.002
  S37                         17.927         0.004         0.008
  S39                        436.058         0.068         0.061
  S40                         49.121         0.018         0.008
  S41                        462.952         0.057         0.046
  S42                        319.680         0.038         0.041
  S43                         38.857         0.016         0.005
  S44                        686.788         0.090         0.105
  S45                          1.696         0.000         0.001
  S47                        134.118         0.039         0.066
  S48                         10.905         0.002         0.004
  S49                        550.470         0.152         0.224
  S51                         23.731         0.008         0.008
  S52                        207.929         0.060         0.071
  S53                        446.129         0.127         0.069
  S54                        265.622         0.060         0.098
  S55                        467.078         0.104         0.179
  S56                          0.451         0.000         0.000
  S57                         17.895         0.007         0.023
  S58                        132.025         0.021         0.022
  S59                         57.012         0.004         0.003
  S60                         56.112         0.023         0.022
  S61                         14.632         0.005         0.001
  S62                         50.865         0.021         0.019
  S63                         36.172         0.008         0.002
  S64                         31.075         0.013         0.023
  S65                        493.284         0.051         0.038
  --------------------------------------------------------------
  System                    9450.983         1.661         2.300
  
  
  ******************
  Node Depth Summary
  ******************
  
  ---------------------------------------------------------------------------------
                                 Average  Maximum  Maximum  Time of Max    Reported
                                   Depth    Depth      HGL   Occurrence   Max Depth
  Node                 Type       Meters   Meters   Meters  days hr:min      Meters
  ---------------------------------------------------------------------------------
  FID1936              JUNCTION     0.15     0.27  1376.57     0  04:20        0.08
  FID1955              JUNCTION     0.15     0.24  1376.16     0  04:30        0.07
  FID1960              JUNCTION     0.15     0.22  1376.08     0  04:30        0.07
  FID1965              JUNCTION     0.15     0.21  1376.51     0  04:30        0.06
  FID1968              JUNCTION     0.14     0.19  1376.59     0  04:30        0.06
  FID2239              JUNCTION     0.14     0.22  1374.73     0  03:30        0.07
  FID2241              JUNCTION     0.13     0.17  1373.30     0  03:30        0.05
  FID2242              JUNCTION     0.14     0.18  1374.22     0  03:30        0.06
  FID2244              JUNCTION     0.13     0.17  1374.53     0  03:30        0.05
  FID2440              JUNCTION     0.44     0.52  1374.77     0  04:30        0.16
  FID2442              JUNCTION     0.00     0.00  1375.27     0  00:00        0.00
  FID2446              JUNCTION     0.15     0.31  1376.11     0  04:20        0.09
  FID2447              JUNCTION     0.15     0.28  1375.98     0  04:20        0.08
  FID2455              JUNCTION     0.35     0.44  1374.43     0  04:31        0.13
  FID2711              JUNCTION     0.13     0.19  1370.37     0  04:05        0.06
  FID2719              JUNCTION     0.15     0.25  1370.35     0  04:05        0.08
  FID2720              JUNCTION     0.15     0.25  1370.45     0  04:05        0.08
  FID2824              JUNCTION     0.12     0.16  1371.44     0  03:55        0.05
  FID2827              JUNCTION     0.13     0.19  1371.49     0  04:10        0.06
  FID2828              JUNCTION     0.14     0.19  1371.51     0  03:27        0.06
  FID2832              JUNCTION     0.15     0.21  1370.81     0  04:10        0.06
  FID2833              JUNCTION     0.18     0.29  1370.91     0  04:10        0.09
  FID2839              JUNCTION     0.15     0.21  1371.41     0  04:10        0.06
  FID2873              JUNCTION     0.15     0.20  1370.90     0  04:10        0.06
  FID2964              JUNCTION     0.17     0.27  1371.05     0  04:10        0.08
  FID2965              JUNCTION     0.40     0.59  1370.85     0  05:15        0.18
  FID4584              JUNCTION     0.00     0.00  1371.34     0  00:00        0.00
  FID5068              JUNCTION     0.13     0.17  1375.55     0  03:30        0.05
  FID5072              JUNCTION     0.53     0.64  1373.93     0  04:40        0.20
  FID5140              JUNCTION     0.14     0.25  1373.47     0  04:30        0.08
  FID5435              JUNCTION     0.14     0.19  1372.94     0  04:05        0.06
  FID5437              JUNCTION     0.13     0.16  1373.11     0  03:30        0.05
  FID5503              JUNCTION     0.10     0.13  1371.46     0  09:00        0.04
  FID5504              JUNCTION     0.15     0.19  1371.55     0  04:10        0.06
  FID5527              JUNCTION     0.14     0.18  1372.68     0  04:10        0.05
  FID5568              JUNCTION     0.49     0.64  1373.04     0  04:34        0.20
  FID5784              JUNCTION     0.49     0.65  1372.65     0  04:40        0.20
  FID5785              JUNCTION     0.13     0.19  1374.62     0  03:31        0.06
  AFID6926             JUNCTION     0.14     0.19  1369.99     0  04:15        0.06
  AFID7360             JUNCTION     0.45     0.66  1370.79     0  05:18        0.20
  AFID7363             JUNCTION     0.43     0.64  1370.81     0  05:17        0.20
  AFID7376             JUNCTION     0.16     0.25  1371.48     0  04:10        0.08
  AFID7377             JUNCTION     0.38     0.53  1371.21     0  05:04        0.16
  AFID7705             JUNCTION     0.57     0.61  1375.58     0  04:32        0.19
  AFID7706             JUNCTION     0.62     0.67  1375.58     0  04:32        0.20
  AFID7792             JUNCTION     0.15     0.25  1375.05     0  03:30        0.08
  AFID8223             JUNCTION     0.49     0.65  1372.65     0  04:40        0.20
  J1                   JUNCTION     0.83     0.84  1375.83     0  04:35        0.25
  FID4901              JUNCTION     0.54     0.57  1375.64     0  04:35        0.17
  J9                   JUNCTION     0.71     0.72  1375.82     0  04:35        0.22
  J11                  JUNCTION     0.56     0.57  1375.78     0  04:36        0.17
  J12                  JUNCTION     0.55     0.57  1375.68     0  04:35        0.17
  J13                  JUNCTION     0.54     0.57  1375.65     0  04:35        0.17
  FID4902              JUNCTION     0.56     0.59  1375.63     0  04:35        0.18
  J14                  JUNCTION     0.44     0.49  1375.40     0  04:21        0.15
  J15                  JUNCTION     0.40     0.47  1375.13     0  04:24        0.14
  J16                  JUNCTION     0.41     0.48  1375.12     0  04:25        0.15
  FID2449              JUNCTION     0.45     0.53  1374.85     0  04:30        0.16
  J17                  JUNCTION     0.34     0.43  1374.40     0  04:31        0.13
  J19                  JUNCTION     0.48     0.59  1374.13     0  04:38        0.18
  FID5069              JUNCTION     0.55     0.67  1373.93     0  04:40        0.20
  FID5139              JUNCTION     0.50     0.65  1373.01     0  04:33        0.20
  J24                  JUNCTION     0.50     0.66  1373.02     0  04:34        0.20
  FID4984              JUNCTION     0.51     0.67  1372.63     0  04:40        0.21
  FID2669              JUNCTION     0.31     0.48  1368.92     0  05:37        0.15
  FID2712              JUNCTION     0.34     0.50  1369.70     0  05:33        0.15
  FID2718              JUNCTION     0.34     0.51  1369.75     0  05:33        0.16
  FID2838              JUNCTION     0.52     0.75  1370.69     0  05:21        0.23
  FID2825              JUNCTION     0.57     0.81  1370.72     0  05:20        0.25
  FID2823              JUNCTION     0.60     0.87  1370.74     0  05:20        0.26
  FID5505              JUNCTION     0.51     0.74  1370.76     0  05:19        0.23
  FID5436              JUNCTION     0.50     0.65  1371.98     0  04:50        0.20
  FID5438              JUNCTION     0.44     0.59  1372.01     0  04:50        0.18
  J49                  JUNCTION     0.57     0.60  1375.62     0  04:34        0.18
  J50                  JUNCTION     0.60     0.64  1375.60     0  04:34        0.19
  J51                  JUNCTION     0.65     0.69  1375.59     0  04:33        0.21
  J52                  JUNCTION     0.66     0.70  1375.58     0  04:33        0.21
  J53                  JUNCTION     0.44     0.49  1375.41     0  04:21        0.15
  J54                  JUNCTION     0.44     0.49  1375.44     0  04:37        0.15
  J55                  JUNCTION     0.50     0.54  1375.56     0  04:33        0.16
  J56                  JUNCTION     0.47     0.51  1375.54     0  04:35        0.16
  J57                  JUNCTION     0.45     0.49  1375.52     0  04:36        0.15
  J58                  JUNCTION     0.45     0.49  1375.47     0  04:37        0.15
  FID1935              JUNCTION     0.44     0.50  1375.39     0  04:21        0.15
  J59                  JUNCTION     0.44     0.49  1375.36     0  04:22        0.15
  J60                  JUNCTION     0.43     0.48  1375.31     0  04:24        0.15
  J61                  JUNCTION     0.41     0.47  1375.23     0  04:25        0.14
  J62                  JUNCTION     0.40     0.46  1375.21     0  04:25        0.14
  J63                  JUNCTION     0.41     0.48  1375.16     0  04:25        0.15
  J64                  JUNCTION     0.40     0.47  1375.08     0  04:25        0.14
  J65                  JUNCTION     0.37     0.44  1375.02     0  04:27        0.13
  J66                  JUNCTION     0.44     0.52  1374.73     0  04:30        0.16
  J67                  JUNCTION     0.43     0.51  1374.66     0  04:32        0.15
  J68                  JUNCTION     0.41     0.49  1374.56     0  04:32        0.15
  J69                  JUNCTION     0.54     0.65  1374.38     0  04:31        0.20
  J70                  JUNCTION     0.53     0.63  1374.28     0  04:33        0.19
  J71                  JUNCTION     0.51     0.61  1374.21     0  04:35        0.19
  J72                  JUNCTION     0.54     0.65  1374.00     0  04:40        0.20
  J73                  JUNCTION     0.55     0.67  1373.89     0  04:40        0.20
  J74                  JUNCTION     0.55     0.67  1373.65     0  04:47        0.20
  J75                  JUNCTION     0.56     0.68  1373.52     0  04:54        0.21
  J76                  JUNCTION     0.50     0.65  1372.99     0  04:34        0.20
  J77                  JUNCTION     0.50     0.65  1372.86     0  04:36        0.20
  J78                  JUNCTION     0.50     0.65  1372.72     0  04:39        0.20
  J79                  JUNCTION     0.49     0.65  1372.66     0  04:40        0.20
  J80                  JUNCTION     0.42     0.56  1372.05     0  04:49        0.17
  J81                  JUNCTION     0.47     0.63  1371.63     0  04:58        0.19
  J82                  JUNCTION     0.46     0.62  1371.55     0  04:59        0.19
  J83                  JUNCTION     0.39     0.55  1371.35     0  05:02        0.17
  J84                  JUNCTION     0.35     0.50  1371.13     0  05:05        0.15
  J85                  JUNCTION     0.35     0.50  1371.03     0  05:08        0.15
  J86                  JUNCTION     0.37     0.54  1370.91     0  05:12        0.16
  J87                  JUNCTION     0.43     0.63  1370.82     0  05:17        0.19
  J88                  JUNCTION     0.49     0.72  1370.77     0  05:19        0.22
  J89                  JUNCTION     0.53     0.77  1370.76     0  05:19        0.23
  J90                  JUNCTION     0.49     0.72  1370.68     0  05:21        0.22
  J91                  JUNCTION     0.49     0.72  1370.61     0  05:22        0.22
  J92                  JUNCTION     0.48     0.72  1370.56     0  05:23        0.22
  J93                  JUNCTION     0.48     0.72  1370.44     0  05:25        0.22
  J94                  JUNCTION     0.48     0.71  1370.37     0  05:27        0.22
  J95                  JUNCTION     0.48     0.71  1370.35     0  05:27        0.22
  J96                  JUNCTION     0.47     0.70  1370.26     0  05:28        0.21
  J97                  JUNCTION     0.46     0.69  1370.18     0  05:29        0.21
  J98                  JUNCTION     0.45     0.67  1370.12     0  05:30        0.20
  J99                  JUNCTION     0.44     0.65  1370.05     0  05:30        0.20
  J100                 JUNCTION     0.42     0.63  1369.99     0  05:31        0.19
  J101                 JUNCTION     0.40     0.60  1369.92     0  05:31        0.18
  J102                 JUNCTION     0.34     0.51  1369.78     0  05:32        0.16
  J103                 JUNCTION     0.34     0.51  1369.73     0  05:33        0.15
  J104                 JUNCTION     0.33     0.50  1369.66     0  05:33        0.15
  J105                 JUNCTION     0.33     0.49  1369.62     0  05:34        0.15
  J106                 JUNCTION     0.31     0.48  1369.55     0  05:34        0.15
  J107                 JUNCTION     0.31     0.48  1369.41     0  05:35        0.15
  J108                 JUNCTION     0.31     0.48  1369.27     0  05:36        0.15
  J109                 JUNCTION     0.31     0.48  1369.16     0  05:36        0.15
  J110                 JUNCTION     0.31     0.48  1369.06     0  05:37        0.15
  J111                 JUNCTION     0.31     0.48  1368.96     0  05:37        0.15
  J112                 JUNCTION     0.31     0.48  1368.80     0  05:38        0.15
  J113                 JUNCTION     0.31     0.48  1368.71     0  05:38        0.15
  J114                 JUNCTION     0.31     0.48  1368.59     0  05:39        0.15
  J115                 JUNCTION     0.31     0.48  1368.53     0  05:39        0.15
  J116                 JUNCTION     0.31     0.48  1368.46     0  05:40        0.15
  J117                 JUNCTION     0.31     0.49  1368.36     0  05:40        0.15
  J118                 JUNCTION     0.32     0.50  1368.27     0  05:41        0.15
  J119                 JUNCTION     0.32     0.51  1368.21     0  05:41        0.16
  J120                 JUNCTION     0.35     0.54  1368.14     0  05:41        0.17
  FID2451              JUNCTION     0.44     0.52  1374.80     0  04:35        0.16
  J121                 JUNCTION     0.37     0.53  1371.27     0  05:03        0.16
  J122                 JUNCTION     0.37     0.53  1371.24     0  05:03        0.16
  FID3706              JUNCTION     0.48     0.72  1370.45     0  05:25        0.22
  FID2831              JUNCTION     0.48     0.71  1370.33     0  05:27        0.22
  FID2689              OUTFALL      0.17     0.27  1367.77     0  05:41        0.08
  
  
  *******************
  Node Inflow Summary
  *******************
  
  -------------------------------------------------------------------------------------------------
                                  Maximum  Maximum                  Lateral       Total        Flow
                                  Lateral    Total  Time of Max      Inflow      Inflow     Balance
                                   Inflow   Inflow   Occurrence      Volume      Volume       Error
  Node                 Type           CMS      CMS  days hr:min    10^6 ltr    10^6 ltr     Percent
  -------------------------------------------------------------------------------------------------
  FID1936              JUNCTION     0.052    0.052     0  04:20        0.06        0.06       0.287
  FID1955              JUNCTION     0.044    0.044     0  04:30       0.144       0.144       0.123
  FID1960              JUNCTION     0.026    0.026     0  04:30      0.0657      0.0657       0.266
  FID1965              JUNCTION     0.013    0.013     0  04:30      0.0331      0.0331       0.529
  FID1968              JUNCTION     0.005    0.005     0  04:30     0.00998     0.00998       1.778
  FID2239              JUNCTION     0.003    0.003     0  03:30     0.00822     0.00822       3.575
  FID2241              JUNCTION     0.000    0.003     0  03:30           0     0.00758       2.326
  FID2242              JUNCTION     0.003    0.003     0  03:30     0.00776     0.00776       2.356
  FID2244              JUNCTION     0.001    0.001     0  03:30     0.00301     0.00301       6.153
  FID2440              JUNCTION     0.000    0.569     0  04:20           0        12.3       0.392
  FID2442              JUNCTION     0.000    0.000     0  00:00           0           0       0.000 ltr
  FID2446              JUNCTION     0.041    0.041     0  04:20      0.0425      0.0425       0.939
  FID2447              JUNCTION     0.000    0.040     0  04:20           0      0.0421       0.082
  FID2455              JUNCTION     0.021    0.567     0  04:30      0.0599          12       0.413
  FID2711              JUNCTION     0.000    0.006     0  04:05           0        0.01       1.741
  FID2719              JUNCTION     0.026    0.026     0  04:05      0.0475      0.0475       0.366
  FID2720              JUNCTION     0.006    0.006     0  04:05      0.0102      0.0102       2.098
  FID2824              JUNCTION     0.000    0.001     0  04:10    0.000137     0.00175      10.594
  FID2827              JUNCTION     0.000    0.001     0  03:28    0.000155     0.00179      10.861
  FID2828              JUNCTION     0.000    0.000     0  03:30     0.00183     0.00183      12.149
  FID2832              JUNCTION     0.000    0.030     0  04:10           0       0.118       0.157
  FID2833              JUNCTION     0.030    0.030     0  04:10       0.119       0.119       0.212
  FID2839              JUNCTION     0.068    0.068     0  04:10       0.287       0.287       0.074
  FID2873              JUNCTION     0.004    0.004     0  04:10      0.0156      0.0156       1.459
  FID2964              JUNCTION     0.030    0.030     0  04:10       0.129       0.129       0.272
  FID2965              JUNCTION     0.000    0.618     0  05:06           0        9.67       0.695
  FID4584              JUNCTION     0.000    0.000     0  00:00           0           0       0.000 ltr
  FID5068              JUNCTION     0.001    0.001     0  03:30      0.0037      0.0037       4.946
  FID5072              JUNCTION     0.022    0.573     0  04:37      0.0604        11.3       0.384
  FID5140              JUNCTION     0.088    0.088     0  04:30       0.142       0.142       0.134
  FID5435              JUNCTION     0.017    0.017     0  04:05      0.0759      0.0759       0.232
  FID5437              JUNCTION     0.000    0.000     0  03:30     0.00101     0.00101      20.905
  FID5503              JUNCTION     0.000    0.000     0  03:30    0.000146    0.000146     146.490 ltr
  FID5504              JUNCTION     0.012    0.012     0  04:10      0.0471      0.0471       0.370
  FID5527              JUNCTION     0.003    0.003     0  04:10     0.00974     0.00974       1.670
  FID5568              JUNCTION     0.001    0.571     0  04:40     0.00144        10.8       1.433
  FID5784              JUNCTION     0.000    0.627     0  04:36           0        10.6       0.189
  FID5785              JUNCTION     0.000    0.003     0  03:30           0     0.00794       1.938
  AFID6926             JUNCTION     0.012    0.012     0  04:15      0.0497      0.0497       0.352
  AFID7360             JUNCTION     0.000    0.615     0  05:09    8.83e-05        9.55       0.523
  AFID7363             JUNCTION     0.000    0.615     0  05:09           0        9.57       0.242
  AFID7376             JUNCTION     0.032    0.032     0  04:10       0.129       0.129       0.288
  AFID7377             JUNCTION     0.000    0.617     0  05:01           0        9.79       0.245
  AFID7705             JUNCTION     0.000    0.494     0  04:30           0        13.1       0.361
  AFID7706             JUNCTION     0.000    0.474     0  04:33           0        13.1       0.334
  AFID7792             JUNCTION     0.042    0.042     0  03:30       0.131       0.131       0.132
  AFID8223             JUNCTION     0.000    0.627     0  04:36           0        10.6       0.046
  J1                   JUNCTION     0.658    0.658     0  04:30          21          21       0.190
  FID4901              JUNCTION     0.000    0.444     0  04:30           0        13.5       0.312
  J9                   JUNCTION     0.000    0.661     0  00:01           0        20.9       0.394
  J11                  JUNCTION     0.000    0.657     0  04:30           0        20.9       0.725
  J12                  JUNCTION     0.003    0.657     0  04:30     0.00611        20.7       0.795
  J13                  JUNCTION    -0.220    0.657     0  04:49       -7.13        20.6      -0.225
  FID4902              JUNCTION     0.000    0.447     0  04:30           0        13.5       0.494
  J14                  JUNCTION     0.070    0.511     0  04:20       0.128        12.8       0.283
  J15                  JUNCTION     0.082    0.561     0  04:20       0.179        12.7       0.249
  J16                  JUNCTION     0.003    0.557     0  04:20      0.0025        12.6       0.250
  FID2449              JUNCTION     0.000    0.547     0  04:27     0.00036        12.4       1.984
  J17                  JUNCTION     0.032    0.578     0  04:20      0.0887        12.1       0.214
  J19                  JUNCTION     0.003    0.573     0  04:33     0.00772        11.7       2.359
  FID5069              JUNCTION     0.000    0.573     0  04:37           0        11.2       0.337
  FID5139              JUNCTION     0.000    0.634     0  04:30           0        10.8       0.111
  J24                  JUNCTION     0.003    0.577     0  04:43     0.00878        10.6       0.156
  FID4984              JUNCTION     0.000    0.627     0  04:36           0        10.6       1.647
  FID2669              JUNCTION     0.000    0.613     0  05:37           0        8.97       0.192
  FID2712              JUNCTION     0.000    0.613     0  05:32           0        9.14       0.220
  FID2718              JUNCTION     0.000    0.613     0  05:31           0        9.16       0.158
  FID2838              JUNCTION     0.000    0.615     0  05:16           0        9.54       0.425
  FID2825              JUNCTION     0.000    0.611     0  05:16           0        9.35       0.675
  FID2823              JUNCTION     0.000    0.612     0  05:14           0        9.41       1.134
  FID5505              JUNCTION     0.000    0.613     0  05:12           0        9.49       0.320
  FID5436              JUNCTION     0.000    0.624     0  04:46           0        10.3       1.863
  FID5438              JUNCTION     0.000    0.619     0  04:46           0        10.3       0.300
  J49                  JUNCTION     0.000    0.445     0  04:30           0        13.4       0.806
  J50                  JUNCTION     0.000    0.444     0  04:44    7.46e-05        13.3       1.377
  J51                  JUNCTION     0.000    0.448     0  04:50           0        13.1       1.077
  J52                  JUNCTION     0.000    0.451     0  04:50           0          13       0.315
  J53                  JUNCTION     0.000    0.487     0  04:41           0        12.7       0.320
  J54                  JUNCTION     0.000    0.486     0  04:32           0        12.8       0.472
  J55                  JUNCTION     0.000    0.493     0  04:30           0        13.1       0.429
  J56                  JUNCTION     0.000    0.490     0  04:31           0          13       0.473
  J57                  JUNCTION     0.000    0.489     0  04:32           0        12.9       0.601
  J58                  JUNCTION     0.001    0.488     0  04:32      0.0018        12.9       0.644
  FID1935              JUNCTION     0.000    0.554     0  04:20           0        12.8       0.368
  J59                  JUNCTION     0.000    0.545     0  04:20           0        12.8       0.538
  J60                  JUNCTION     0.003    0.533     0  04:20     0.00251        12.7       0.840
  J61                  JUNCTION     0.000    0.519     0  04:23           0        12.6       0.569
  J62                  JUNCTION     0.000    0.516     0  04:25           0        12.5       0.261
  J63                  JUNCTION     0.000    0.516     0  04:26           0        12.5       0.262
  J64                  JUNCTION     0.000    0.555     0  04:22           0        12.6       0.268
  J65                  JUNCTION     0.008    0.555     0  04:23     0.00801        12.6       1.586
  J66                  JUNCTION     0.000    0.565     0  04:20           0        12.2       0.493
  J67                  JUNCTION     0.000    0.562     0  04:30           0        12.2       0.729
  J68                  JUNCTION     0.002    0.561     0  04:31     0.00488        12.1       0.777
  J69                  JUNCTION     0.000    0.577     0  04:20           0        12.1       0.814
  J70                  JUNCTION     0.001    0.575     0  04:30     0.00246          12       1.054
  J71                  JUNCTION     0.000    0.574     0  04:32           0        11.8       0.783
  J72                  JUNCTION     0.002    0.572     0  04:37     0.00664        11.5       2.483
  J73                  JUNCTION     0.000    0.573     0  04:38           0        11.2       0.807
  J74                  JUNCTION     0.000    0.573     0  04:40           0        11.1       1.180
  J75                  JUNCTION     0.001    0.572     0  04:41     0.00256          11       1.824
  J76                  JUNCTION     0.000    0.633     0  04:31           0        10.7       0.443
  J77                  JUNCTION     0.018    0.636     0  04:32      0.0563        10.8       0.820
  J78                  JUNCTION     0.000    0.632     0  04:34           0        10.7       0.610
  J79                  JUNCTION     0.000    0.628     0  04:35           0        10.6       0.222
  J80                  JUNCTION     0.003    0.624     0  04:42     0.00649        10.4       1.430
  J81                  JUNCTION     0.000    0.621     0  04:51     0.00113        10.1       2.544
  J82                  JUNCTION     0.000    0.617     0  04:56           0        9.88       1.040
  J83                  JUNCTION     0.000    0.616     0  04:59           0        9.78       0.845
  J84                  JUNCTION     0.000    0.617     0  05:02           0        9.76       0.461
  J85                  JUNCTION     0.000    0.617     0  05:03           0        9.71       0.840
  J86                  JUNCTION     0.000    0.616     0  05:05           0        9.63       0.935
  J87                  JUNCTION     0.000    0.616     0  05:08     0.00175        9.61       0.391
  J88                  JUNCTION     0.000    0.614     0  05:11           0         9.5       0.557
  J89                  JUNCTION     0.000    0.613     0  05:12           0        9.46       0.883
  J90                  JUNCTION     0.000    0.615     0  05:17           0        9.46       0.330
  J91                  JUNCTION     0.000    0.615     0  05:18           0        9.43       0.444
  J92                  JUNCTION     0.000    0.614     0  05:19    6.78e-07        9.39       0.567
  J93                  JUNCTION     0.000    0.614     0  05:22           0        9.31       0.310
  J94                  JUNCTION     0.000    0.613     0  05:23    1.25e-06        9.28       0.328
  J95                  JUNCTION     0.000    0.613     0  05:24           0        9.26       0.128
  J96                  JUNCTION     0.000    0.614     0  05:25           0        9.33       0.483
  J97                  JUNCTION     0.000    0.613     0  05:26           0        9.28       0.410
  J98                  JUNCTION     0.000    0.613     0  05:28           0        9.24       0.360
  J99                  JUNCTION     0.000    0.613     0  05:29           0        9.21       0.303
  J100                 JUNCTION     0.000    0.613     0  05:29           0        9.18       0.257
  J101                 JUNCTION     0.000    0.613     0  05:30           0        9.16       0.297
  J102                 JUNCTION     0.000    0.613     0  05:31           0        9.13       0.238
  J103                 JUNCTION     0.000    0.613     0  05:31           0        9.14       0.180
  J104                 JUNCTION     0.000    0.613     0  05:32           0        9.12       0.235
  J105                 JUNCTION     0.000    0.613     0  05:33           0         9.1       0.290
  J106                 JUNCTION     0.000    0.613     0  05:33           0        9.07       0.332
  J107                 JUNCTION     0.000    0.613     0  05:34           0        9.04       0.342
  J108                 JUNCTION     0.000    0.613     0  05:35     4.5e-06        9.01       0.307
  J109                 JUNCTION     0.000    0.613     0  05:35           0        8.98       0.261
  J110                 JUNCTION     0.000    0.613     0  05:36           0        8.96       0.255
  J111                 JUNCTION     0.000    0.613     0  05:36    4.05e-05        8.94       0.182
  J112                 JUNCTION     0.000    0.613     0  05:37           0        8.95       0.265
  J113                 JUNCTION     0.000    0.613     0  05:38           0        8.93       0.261
  J114                 JUNCTION     0.000    0.613     0  05:38           0         8.9       0.216
  J115                 JUNCTION     0.000    0.613     0  05:39           0        8.88       0.165
  J116                 JUNCTION     0.000    0.613     0  05:39    1.22e-06        8.87       0.221
  J117                 JUNCTION     0.000    0.613     0  05:39           0        8.85       0.270
  J118                 JUNCTION     0.000    0.613     0  05:40           0        8.83       0.235
  J119                 JUNCTION     0.000    0.613     0  05:40           0        8.81       0.241
  J120                 JUNCTION     0.000    0.613     0  05:41           0        8.78       0.270
  FID2451              JUNCTION     0.000    0.552     0  04:35           0        12.2       0.377
  J121                 JUNCTION     0.001    0.616     0  05:01     0.00343         9.7       0.242
  J122                 JUNCTION     0.000    0.615     0  05:01    0.000156        9.68       0.206
  FID3706              JUNCTION     0.000    0.614     0  05:21           0        9.35       0.430
  FID2831              JUNCTION     0.000    0.614     0  05:24           0        9.36       0.305
  FID2689              OUTFALL      0.000    0.613     0  05:41           0        8.76       0.000
  
  
  **********************
  Node Surcharge Summary
  **********************
  
  No nodes were surcharged.
  
  
  *********************
  Node Flooding Summary
  *********************
  
  No nodes were flooded.
  
  
  ***********************
  Outfall Loading Summary
  ***********************
  
  -----------------------------------------------------------------------------------------------------
                         Flow       Avg       Max       Total         Total         Total         Total
                         Freq      Flow      Flow      Volume           TSS            TP           TDP
  Outfall Node           Pcnt       CMS       CMS    10^6 ltr            kg            kg            kg
  -----------------------------------------------------------------------------------------------------
  FID2689               73.95     0.478     0.613       8.761      7180.410         1.743         2.273
  -----------------------------------------------------------------------------------------------------
  System                73.95     0.478     0.613       8.761      7180.410         1.743         2.273
  
  
  ********************
  Link Flow Summary
  ********************
  
  -----------------------------------------------------------------------------
                                 Maximum  Time of Max   Maximum    Max/    Max/
                                  |Flow|   Occurrence   |Veloc|    Full    Full
  Link                 Type          CMS  days hr:min     m/sec    Flow   Depth
  -----------------------------------------------------------------------------
  FID1123              CONDUIT     0.004     0  04:10      0.53    0.05    0.16
  FID1139              CONDUIT     0.025     0  04:05      1.04    0.15    0.27
  FID1148              CONDUIT     0.030     0  04:10      0.60    0.06    0.13
  FID1149              CONDUIT     0.030     0  04:10      1.60    0.01    0.14
  FID3364              CONDUIT     0.032     0  04:10      0.85    0.02    0.23
  FID3671              CONDUIT     0.005     0  04:30      0.97    0.03    0.11
  FID3672              CONDUIT     0.013     0  04:30      1.33    0.08    0.19
  FID3762              CONDUIT     0.026     0  04:30      0.56    0.07    0.43
  FID3765              CONDUIT     0.044     0  04:30      0.84    0.10    0.47
  FID4112              CONDUIT     0.051     0  04:20      1.36    0.08    0.19
  FID4186              CONDUIT     0.003     0  03:30      0.69    0.01    0.07
  FID4187              CONDUIT     0.003     0  03:30      1.08    0.01    0.05
  FID4201              CONDUIT     0.040     0  04:20      0.98    0.35    0.39
  FID4202              CONDUIT     0.039     0  04:20      1.17    0.24    0.34
  FID4203              CONDUIT     0.000     0  00:00      0.00    0.00    0.13
  FID4299              CONDUIT     0.001     0  03:30      0.66    0.00    0.05
  FID4372              CONDUIT     0.087     0  04:30      0.45    0.02    0.28
  FID4498              CONDUIT     0.030     0  04:10      0.86    0.14    0.53
  FID4806              CONDUIT     0.017     0  04:05      2.16    0.00    0.04
  FID4807              CONDUIT     0.000     0  03:30      0.51    0.00    0.03
  FID4882              CONDUIT     0.000     0  00:00      0.00    0.00    0.50
  FID4884              CONDUIT     0.012     0  04:10      1.24    0.00    0.04
  FID4914              CONDUIT     0.002     0  04:10      0.54    0.01    0.53
  FID4915              CONDUIT     0.001     0  03:28      0.15    0.01    0.08
  FID4916              CONDUIT     0.001     0  04:10      0.16    0.01    0.07
  FID4917              CONDUIT     0.001     0  04:10      0.57    0.00    0.28
  FID5307              CONDUIT     0.003     0  03:30      0.33    0.05    0.13
  FID5308              CONDUIT     0.001     0  03:30      0.80    0.01    0.05
  FID5312              CONDUIT     0.003     0  03:31      0.44    0.01    0.08
  FID5865              CONDUIT     0.068     0  04:10      4.15    0.01    0.10
  C9                   CHANNEL     0.661     0  00:01      0.53    0.12    0.55
  C12                  CHANNEL     0.655     0  04:37      0.35    0.48    0.66
  C13                  CHANNEL     0.657     0  04:49      0.47    0.48    0.66
  C14                  CHANNEL     0.438     0  04:50      0.47    0.32    0.66
  C52                  CONDUIT     0.042     0  03:30      0.47    0.06    0.36
  C130                 CONDUIT     0.006     0  04:05      0.35    0.09    0.16
  C131                 CONDUIT     0.006     0  04:05      1.11    0.01    0.12
  C139                 CONDUIT     0.000     0  00:00      0.00    0.00    0.12
  C191                 CHANNEL     0.445     0  04:30      0.36    0.32    0.69
  C193                 CHANNEL     0.448     0  04:50      0.28    0.33    0.77
  C194                 CHANNEL     0.451     0  04:50      0.23    0.33    0.81
  C195                 CHANNEL     0.452     0  04:51      0.27    0.15    0.65
  C196                 CONDUIT     0.443     0  04:30      0.34    0.53    0.73
  C197                 CONDUIT     0.474     0  04:34      0.19    0.37    0.91
  C198                 CHANNEL     0.493     0  04:30      0.22    0.16    0.54
  C199                 CHANNEL     0.490     0  04:31      0.23    3.55    0.63
  C200                 CHANNEL     0.489     0  04:32      0.26    3.20    0.60
  C201                 CHANNEL     0.488     0  04:32      0.23    0.24    0.49
  C202                 CHANNEL     0.486     0  04:32      0.24    0.24    0.49
  C203                 CHANNEL     0.487     0  04:41      0.24    0.24    0.49
  C204                 CHANNEL     0.488     0  04:41      0.35    0.24    0.49
  C205                 CONDUIT     0.507     0  04:35      0.23    0.58    0.60
  C206                 CHANNEL     0.545     0  04:20      0.28    0.27    0.49
  C207                 CHANNEL     0.532     0  04:21      0.25    0.26    0.49
  C208                 CHANNEL     0.519     0  04:23      0.25    0.25    0.47
  C209                 CHANNEL     0.516     0  04:25      0.25    0.25    0.46
  C210                 CHANNEL     0.516     0  04:26      0.31    0.26    0.54
  C211                 CHANNEL     0.517     0  04:26      0.32    0.31    0.48
  C212                 CONDUIT     0.556     0  04:22      0.24    0.53    0.58
  C213                 CHANNEL     0.555     0  04:22      0.32    0.33    0.48
  C214                 CHANNEL     0.553     0  04:23      0.39    0.33    0.46
  C215                 CONDUIT     0.547     0  04:27      0.24    0.52    0.59
  C216                 CONDUIT     0.545     0  04:40      0.30    0.67    0.49
  C217                 CONDUIT     0.552     0  04:35      0.25    0.36    0.38
  C218                 CHANNEL     0.565     0  04:20      0.29    0.34    0.53
  C219                 CHANNEL     0.562     0  04:30      0.29    0.34    0.52
  C220                 CHANNEL     0.561     0  04:31      0.30    0.34    0.51
  C221                 CHANNEL     0.561     0  04:36      0.33    0.34    0.47
  C222                 CONDUIT     0.567     0  04:31      0.32    0.63    0.53
  C223                 CHANNEL     0.577     0  04:20      0.40    0.12    0.48
  C224                 CHANNEL     0.575     0  04:31      0.31    0.62    0.74
  C225                 CHANNEL     0.574     0  04:32      0.30    0.62    0.72
  C226                 CHANNEL     0.573     0  04:33      0.40    0.62    0.70
  C227                 CONDUIT     0.571     0  04:37      0.24    0.77    0.75
  C228                 CHANNEL     0.571     0  04:40      0.39    0.39    0.60
  C229                 CONDUIT     0.573     0  04:37      0.17    0.17    0.44
  C230                 CHANNEL     0.573     0  04:38      0.41    0.39    0.62
  C231                 CHANNEL     0.573     0  04:40      0.35    0.39    0.62
  C232                 CHANNEL     0.572     0  04:41      0.40    0.39    0.62
  C233                 CHANNEL     0.571     0  04:40      0.37    0.39    0.61
  C234                 CONDUIT     0.577     0  04:43      0.27    0.39    0.47
  C235                 CHANNEL     0.578     0  04:43      0.39    0.39    0.61
  C236                 CHANNEL     0.633     0  04:31      0.38    0.50    0.68
  C237                 CHANNEL     0.631     0  04:32      0.37    0.50    0.68
  C238                 CHANNEL     0.632     0  04:34      0.38    0.50    0.68
  C239                 CHANNEL     0.628     0  04:35      0.38    0.50    0.67
  C240                 CHANNEL     0.627     0  04:36      0.45    0.49    0.67
  C241                 CHANNEL     0.626     0  04:36      0.52    0.50    0.67
  C242                 CONDUIT     0.626     0  04:37      0.35    0.36    0.54
  C243                 CHANNEL     0.624     0  04:42      0.40    0.50    0.64
  C244                 CHANNEL     0.619     0  04:46      0.57    0.17    0.37
  C245                 CONDUIT     0.619     0  04:46      0.32    0.28    0.48
  C246                 CHANNEL     0.621     0  04:51      0.31    0.33    0.56
  C247                 CHANNEL     0.617     0  04:56      0.31    0.33    0.55
  C248                 CHANNEL     0.616     0  04:59      0.34    0.33    0.51
  C249                 CHANNEL     0.616     0  05:01      0.52    0.41    0.51
  C250                 CONDUIT     0.615     0  05:01      0.37    0.37    0.41
  C251                 CONDUIT     0.615     0  05:02      0.37    0.37    0.41
  C252                 CHANNEL     0.617     0  05:02      5.33    0.41    0.48
  C253                 CHANNEL     0.617     0  05:03      0.57    0.23    0.47
  C254                 CHANNEL     0.616     0  05:05      0.56    0.23    0.49
  C255                 CHANNEL     0.614     0  05:07      0.31    0.23    0.53
  C256                 CHANNEL     0.616     0  05:08      0.33    0.23    0.57
  C257                 CHANNEL     0.615     0  05:09      2.06    0.23    0.60
  C258                 CONDUIT     0.615     0  05:09      0.34    0.37    0.51
  C259                 CHANNEL     0.614     0  05:11      0.31    0.23    0.65
  C260                 CHANNEL     0.613     0  05:12      0.29    0.23    0.69
  C261                 CHANNEL     0.613     0  05:12      1.58    0.23    0.71
  C262                 CHANNEL     0.612     0  05:14      0.69    0.23    0.77
  C263                 CHANNEL     0.611     0  05:16      0.24    0.23    0.53
  C264                 CONDUIT     0.611     0  05:18      0.26    0.53    0.57
  C265                 CHANNEL     0.615     0  05:17      0.31    0.24    0.47
  C266                 CHANNEL     0.615     0  05:18      0.35    0.20    0.50
  C267                 CHANNEL     0.614     0  05:19      0.35    0.20    0.50
  C268                 CHANNEL     0.614     0  05:21      0.35    0.20    0.50
  C269                 CHANNEL     0.614     0  05:22      0.35    0.20    0.50
  C270                 CHANNEL     0.613     0  05:23      0.35    0.20    0.50
  C271                 CHANNEL     0.613     0  05:24      0.35    0.20    0.50
  C272                 CHANNEL     0.613     0  05:24      0.35    0.20    0.49
  C273                 CHANNEL     0.614     0  05:25      0.36    0.20    0.49
  C274                 CHANNEL     0.613     0  05:26      0.36    0.20    0.48
  C275                 CHANNEL     0.613     0  05:28      0.38    0.20    0.47
  C276                 CHANNEL     0.613     0  05:29      0.39    0.20    0.46
  C277                 CHANNEL     0.613     0  05:29      0.41    0.20    0.45
  C278                 CHANNEL     0.613     0  05:30      0.44    0.20    0.43
  C279                 CHANNEL     0.613     0  05:31      0.50    0.20    0.39
  C280                 CHANNEL     0.613     0  05:31      0.37    0.35    0.52
  C281                 CHANNEL     0.613     0  05:31      0.37    0.35    0.52
  C282                 CHANNEL     0.613     0  05:32      0.37    0.35    0.52
  C283                 CHANNEL     0.613     0  05:32      0.37    0.35    0.51
  C284                 CHANNEL     0.613     0  05:33      0.38    0.35    0.51
  C285                 CHANNEL     0.613     0  05:33      0.39    0.35    0.49
  C286                 CHANNEL     0.613     0  05:34      0.47    0.25    0.49
  C287                 CHANNEL     0.613     0  05:35      0.47    0.25    0.49
  C288                 CHANNEL     0.613     0  05:35      0.47    0.25    0.49
  C289                 CHANNEL     0.613     0  05:36      0.47    0.25    0.49
  C290                 CHANNEL     0.613     0  05:36      0.47    0.25    0.49
  C291                 CHANNEL     0.613     0  05:37      0.47    0.25    0.49
  C292                 CHANNEL     0.613     0  05:37      0.47    0.25    0.49
  C293                 CHANNEL     0.613     0  05:38      0.47    0.25    0.49
  C294                 CHANNEL     0.613     0  05:38      0.47    0.25    0.49
  C295                 CHANNEL     0.613     0  05:39      0.47    0.25    0.49
  C296                 CHANNEL     0.613     0  05:39      0.47    0.25    0.49
  C297                 CHANNEL     0.613     0  05:39      0.47    0.25    0.49
  C298                 CHANNEL     0.613     0  05:40      0.46    0.25    0.50
  C299                 CHANNEL     0.613     0  05:40      0.44    0.25    0.51
  C300                 CHANNEL     0.613     0  05:41      0.42    0.25    0.54
  C301                 CHANNEL     0.613     0  05:41      0.74    0.18    0.32
  C302                 CHANNEL     0.657     0  04:30      0.46    0.16    0.50
  C303                 CHANNEL     0.444     0  04:44      0.32    0.32    0.72
  C353                 CONDUIT     0.012     0  04:15      1.20    0.00    0.04
  
  
  ***************************
  Flow Classification Summary
  ***************************
  
  -------------------------------------------------------------------------------------
                      Adjusted    ---------- Fraction of Time in Flow Class ---------- 
                       /Actual         Up    Down  Sub   Sup   Up    Down  Norm  Inlet 
  Conduit               Length    Dry  Dry   Dry   Crit  Crit  Crit  Crit  Ltd   Ctrl  
  -------------------------------------------------------------------------------------
  FID1123                 1.00   0.11  0.00  0.00  0.35  0.00  0.00  0.54  0.25  0.00
  FID1139                 1.00   0.11  0.00  0.00  0.00  0.00  0.00  0.89  0.00  0.00
  FID1148                 1.00   0.11  0.00  0.00  0.60  0.00  0.00  0.29  0.00  0.00
  FID1149                 1.00   0.11  0.00  0.00  0.69  0.01  0.00  0.18  0.54  0.00
  FID3364                 1.00   0.11  0.00  0.00  0.79  0.00  0.00  0.11  0.60  0.00
  FID3671                 1.00   0.13  0.00  0.00  0.00  0.00  0.00  0.87  0.00  0.00
  FID3672                 1.00   0.13  0.00  0.00  0.00  0.00  0.00  0.87  0.00  0.00
  FID3762                 1.00   0.02  0.10  0.00  0.88  0.00  0.00  0.00  0.68  0.00
  FID3765                 1.00   0.02  0.10  0.00  0.88  0.00  0.00  0.00  0.68  0.00
  FID4112                 1.00   0.11  0.00  0.00  0.00  0.00  0.00  0.89  0.00  0.00
  FID4186                 1.00   0.16  0.00  0.00  0.45  0.16  0.00  0.22  0.15  0.00
  FID4187                 1.00   0.18  0.00  0.00  0.00  0.00  0.00  0.82  0.00  0.00
  FID4201                 1.00   0.11  0.00  0.00  0.75  0.00  0.00  0.14  0.41  0.00
  FID4202                 1.00   0.12  0.00  0.00  0.00  0.00  0.00  0.88  0.00  0.00
  FID4203                 1.00   0.12  0.88  0.00  0.00  0.00  0.00  0.00  0.00  0.00
  FID4299                 1.00   0.17  0.00  0.00  0.00  0.00  0.00  0.83  0.00  0.00
  FID4372                 1.00   0.10  0.11  0.00  0.79  0.00  0.00  0.00  0.60  0.00
  FID4498                 1.00   0.11  0.00  0.00  0.76  0.00  0.00  0.13  0.59  0.00
  FID4806                 1.00   0.13  0.00  0.00  0.00  0.00  0.00  0.87  0.00  0.00
  FID4807                 1.00   0.19  0.00  0.00  0.00  0.00  0.00  0.81  0.00  0.00
  FID4882                 1.00   0.27  0.73  0.00  0.00  0.00  0.00  0.00  0.00  0.00
  FID4884                 1.00   0.11  0.00  0.00  0.00  0.00  0.00  0.89  0.00  0.00
  FID4914                 1.00   0.11  0.00  0.00  0.83  0.00  0.00  0.06  0.64  0.00
  FID4915                 1.00   0.17  0.00  0.00  0.80  0.00  0.00  0.02  0.61  0.00
  FID4916                 1.00   0.19  0.00  0.00  0.49  0.00  0.00  0.32  0.00  0.00
  FID4917                 1.00   0.21  0.18  0.00  0.55  0.00  0.00  0.07  0.55  0.00
  FID5307                 1.00   0.14  0.00  0.00  0.80  0.00  0.00  0.06  0.48  0.00
  FID5308                 1.00   0.17  0.00  0.00  0.00  0.00  0.00  0.83  0.00  0.00
  FID5312                 1.00   0.18  0.00  0.00  0.00  0.00  0.00  0.82  0.00  0.00
  FID5865                 1.00   0.11  0.00  0.00  0.42  0.15  0.00  0.32  0.43  0.00
  C9                      1.00   0.00  0.00  0.00  1.00  0.00  0.00  0.00  0.00  0.00
  C12                     1.00   0.00  0.00  0.00  1.00  0.00  0.00  0.00  0.00  0.00
  C13                     1.00   0.00  0.00  0.00  1.00  0.00  0.00  0.00  0.00  0.00
  C14                     1.00   0.00  0.00  0.00  1.00  0.00  0.00  0.00  0.00  0.00
  C52                     1.00   0.05  0.07  0.00  0.88  0.00  0.00  0.00  0.68  0.00
  C130                    1.00   0.12  0.00  0.00  0.62  0.00  0.00  0.26  0.00  0.00
  C131                    1.00   0.17  0.00  0.00  0.67  0.01  0.00  0.15  0.52  0.00
  C139                    1.00   0.11  0.89  0.00  0.00  0.00  0.00  0.00  0.00  0.00
  C191                    1.00   0.00  0.00  0.00  1.00  0.00  0.00  0.00  0.00  0.00
  C193                    1.00   0.01  0.00  0.00  0.99  0.00  0.00  0.00  0.00  0.00
  C194                    1.00   0.01  0.00  0.00  0.99  0.00  0.00  0.00  0.00  0.00
  C195                    1.00   0.01  0.00  0.00  0.99  0.00  0.00  0.00  0.00  0.00
  C196                    1.00   0.00  0.00  0.00  1.00  0.00  0.00  0.00  0.00  0.00
  C197                    1.00   0.01  0.00  0.00  0.99  0.00  0.00  0.00  0.00  0.00
  C198                    1.00   0.01  0.00  0.00  0.99  0.00  0.00  0.00  0.00  0.00
  C199                    1.00   0.01  0.00  0.00  0.99  0.00  0.00  0.00  0.00  0.00
  C200                    1.00   0.01  0.00  0.00  0.99  0.00  0.00  0.00  0.00  0.00
  C201                    1.00   0.01  0.00  0.00  0.99  0.00  0.00  0.00  0.00  0.00
  C202                    1.00   0.02  0.00  0.00  0.98  0.00  0.00  0.00  0.00  0.00
  C203                    1.00   0.02  0.00  0.00  0.98  0.00  0.00  0.00  0.00  0.00
  C204                    1.00   0.02  0.00  0.00  0.98  0.00  0.00  0.00  0.00  0.00
  C205                    1.00   0.02  0.00  0.00  0.98  0.00  0.00  0.00  0.00  0.00
  C206                    1.00   0.02  0.00  0.00  0.98  0.00  0.00  0.00  0.00  0.00
  C207                    1.00   0.02  0.00  0.00  0.98  0.00  0.00  0.00  0.00  0.00
  C208                    1.00   0.03  0.00  0.00  0.97  0.00  0.00  0.00  0.00  0.00
  C209                    1.00   0.03  0.00  0.00  0.97  0.00  0.00  0.00  0.00  0.00
  C210                    1.00   0.03  0.00  0.00  0.97  0.00  0.00  0.00  0.00  0.00
  C211                    1.00   0.03  0.00  0.00  0.97  0.00  0.00  0.00  0.00  0.00
  C212                    1.00   0.03  0.00  0.00  0.97  0.00  0.00  0.00  0.00  0.00
  C213                    1.00   0.04  0.00  0.00  0.96  0.00  0.00  0.00  0.00  0.00
  C214                    1.00   0.04  0.00  0.00  0.96  0.00  0.00  0.00  0.00  0.00
  C215                    1.00   0.04  0.00  0.00  0.96  0.00  0.00  0.00  0.03  0.00
  C216                    1.00   0.04  0.00  0.00  0.96  0.00  0.00  0.00  0.00  0.00
  C217                    1.00   0.04  0.00  0.00  0.96  0.00  0.00  0.00  0.00  0.00
  C218                    1.00   0.04  0.00  0.00  0.96  0.00  0.00  0.00  0.00  0.00
  C219                    1.00   0.05  0.00  0.00  0.95  0.00  0.00  0.00  0.00  0.00
  C220                    1.00   0.05  0.00  0.00  0.95  0.00  0.00  0.00  0.00  0.00
  C221                    1.00   0.06  0.00  0.00  0.94  0.00  0.00  0.00  0.00  0.00
  C222                    1.00   0.06  0.00  0.00  0.94  0.00  0.00  0.00  0.00  0.00
  C223                    1.00   0.06  0.00  0.00  0.94  0.00  0.00  0.00  0.01  0.00
  C224                    1.00   0.06  0.00  0.00  0.94  0.00  0.00  0.00  0.00  0.00
  C225                    1.00   0.06  0.00  0.00  0.94  0.00  0.00  0.00  0.00  0.00
  C226                    1.00   0.07  0.00  0.00  0.93  0.00  0.00  0.00  0.00  0.00
  C227                    1.00   0.07  0.00  0.00  0.93  0.00  0.00  0.00  0.00  0.00
  C228                    1.00   0.07  0.00  0.00  0.93  0.00  0.00  0.00  0.00  0.00
  C229                    1.00   0.08  0.00  0.00  0.92  0.00  0.00  0.00  0.00  0.00
  C230                    1.00   0.08  0.00  0.00  0.92  0.00  0.00  0.00  0.00  0.00
  C231                    1.00   0.08  0.00  0.00  0.92  0.00  0.00  0.00  0.00  0.00
  C232                    1.00   0.09  0.00  0.00  0.91  0.00  0.00  0.00  0.00  0.00
  C233                    1.00   0.09  0.00  0.00  0.91  0.00  0.00  0.00  0.00  0.00
  C234                    1.00   0.09  0.00  0.00  0.91  0.00  0.00  0.00  0.00  0.00
  C235                    1.00   0.10  0.00  0.00  0.90  0.00  0.00  0.00  0.00  0.00
  C236                    1.00   0.10  0.00  0.00  0.90  0.00  0.00  0.00  0.00  0.00
  C237                    1.00   0.10  0.00  0.00  0.90  0.00  0.00  0.00  0.00  0.00
  C238                    1.00   0.10  0.00  0.00  0.90  0.00  0.00  0.00  0.00  0.00
  C239                    1.00   0.11  0.00  0.00  0.89  0.00  0.00  0.00  0.00  0.00
  C240                    1.00   0.11  0.00  0.00  0.89  0.00  0.00  0.00  0.00  0.00
  C241                    1.00   0.11  0.00  0.00  0.89  0.00  0.00  0.00  0.05  0.00
  C242                    1.00   0.11  0.00  0.00  0.89  0.00  0.00  0.00  0.00  0.00
  C243                    1.00   0.11  0.00  0.00  0.89  0.00  0.00  0.00  0.00  0.00
  C244                    1.00   0.11  0.00  0.00  0.88  0.00  0.00  0.00  0.00  0.00
  C245                    1.00   0.12  0.00  0.00  0.88  0.00  0.00  0.00  0.00  0.00
  C246                    1.00   0.10  0.03  0.00  0.87  0.00  0.00  0.00  0.01  0.00
  C247                    1.00   0.10  0.00  0.00  0.90  0.00  0.00  0.00  0.00  0.00
  C248                    1.00   0.14  0.00  0.00  0.86  0.00  0.00  0.00  0.00  0.00
  C249                    1.00   0.10  0.07  0.00  0.83  0.00  0.00  0.00  0.01  0.00
  C250                    1.00   0.10  0.00  0.00  0.90  0.00  0.00  0.00  0.05  0.00
  C251                    1.00   0.10  0.00  0.00  0.90  0.00  0.00  0.00  0.03  0.00
  C252                    1.00   0.11  0.00  0.00  0.89  0.00  0.00  0.00  0.03  0.00
  C253                    1.00   0.11  0.00  0.00  0.89  0.00  0.00  0.00  0.00  0.00
  C254                    1.00   0.12  0.00  0.00  0.87  0.00  0.00  0.00  0.00  0.00
  C255                    1.00   0.11  0.05  0.00  0.84  0.00  0.00  0.00  0.05  0.00
  C256                    1.00   0.10  0.00  0.00  0.89  0.00  0.00  0.00  0.06  0.00
  C257                    1.00   0.10  0.00  0.00  0.89  0.01  0.00  0.00  0.00  0.00
  C258                    1.00   0.10  0.01  0.00  0.89  0.00  0.00  0.00  0.03  0.00
  C259                    1.00   0.10  0.00  0.00  0.90  0.00  0.00  0.00  0.08  0.00
  C260                    1.00   0.11  0.00  0.00  0.89  0.00  0.00  0.00  0.01  0.00
  C261                    1.00   0.11  0.00  0.00  0.89  0.00  0.00  0.00  0.02  0.00
  C262                    1.00   0.11  0.00  0.00  0.89  0.00  0.00  0.00  0.02  0.00
  C263                    1.00   0.11  0.00  0.00  0.89  0.00  0.00  0.00  0.00  0.00
  C264                    1.00   0.11  0.00  0.00  0.89  0.00  0.00  0.00  0.01  0.00
  C265                    1.00   0.11  0.00  0.00  0.89  0.00  0.00  0.00  0.00  0.00
  C266                    1.00   0.11  0.00  0.00  0.89  0.00  0.00  0.00  0.00  0.00
  C267                    1.00   0.18  0.00  0.00  0.82  0.00  0.00  0.00  0.00  0.00
  C268                    1.00   0.11  0.09  0.00  0.80  0.00  0.00  0.00  0.02  0.00
  C269                    1.00   0.11  0.00  0.00  0.89  0.00  0.00  0.00  0.00  0.00
  C270                    1.00   0.11  0.03  0.00  0.87  0.00  0.00  0.00  0.06  0.00
  C271                    1.00   0.11  0.00  0.00  0.89  0.00  0.00  0.00  0.02  0.00
  C272                    1.00   0.11  0.00  0.00  0.89  0.00  0.00  0.00  0.00  0.00
  C273                    1.00   0.11  0.00  0.00  0.89  0.00  0.00  0.00  0.01  0.00
  C274                    1.00   0.11  0.00  0.00  0.89  0.00  0.00  0.00  0.00  0.00
  C275                    1.00   0.12  0.00  0.00  0.88  0.00  0.00  0.00  0.00  0.00
  C276                    1.00   0.16  0.00  0.00  0.84  0.00  0.00  0.00  0.00  0.00
  C277                    1.00   0.18  0.00  0.00  0.82  0.00  0.00  0.00  0.00  0.00
  C278                    1.00   0.20  0.00  0.00  0.80  0.00  0.00  0.00  0.00  0.00
  C279                    1.00   0.12  0.09  0.00  0.79  0.00  0.00  0.00  0.01  0.00
  C280                    1.00   0.11  0.01  0.00  0.88  0.00  0.00  0.00  0.04  0.00
  C281                    1.00   0.11  0.00  0.00  0.89  0.00  0.00  0.00  0.04  0.00
  C282                    1.00   0.12  0.00  0.00  0.88  0.00  0.00  0.00  0.04  0.00
  C283                    1.00   0.12  0.00  0.00  0.88  0.00  0.00  0.00  0.01  0.00
  C284                    1.00   0.14  0.00  0.00  0.86  0.00  0.00  0.00  0.02  0.00
  C285                    1.00   0.16  0.00  0.00  0.84  0.00  0.00  0.00  0.01  0.00
  C286                    1.00   0.18  0.00  0.00  0.82  0.00  0.00  0.00  0.02  0.00
  C287                    1.00   0.11  0.09  0.00  0.80  0.00  0.00  0.00  0.01  0.00
  C288                    1.00   0.11  0.00  0.00  0.89  0.00  0.00  0.00  0.01  0.00
  C289                    1.00   0.23  0.00  0.00  0.77  0.00  0.00  0.00  0.00  0.00
  C290                    1.00   0.11  0.13  0.00  0.76  0.00  0.00  0.00  0.02  0.00
  C291                    1.00   0.11  0.00  0.00  0.89  0.00  0.00  0.00  0.07  0.00
  C292                    1.00   0.13  0.00  0.00  0.87  0.00  0.00  0.00  0.02  0.00
  C293                    1.00   0.13  0.00  0.00  0.87  0.00  0.00  0.00  0.01  0.00
  C294                    1.00   0.14  0.00  0.00  0.86  0.00  0.00  0.00  0.00  0.00
  C295                    1.00   0.16  0.00  0.00  0.84  0.00  0.00  0.00  0.01  0.00
  C296                    1.00   0.13  0.06  0.00  0.81  0.00  0.00  0.00  0.01  0.00
  C297                    1.00   0.13  0.00  0.00  0.87  0.00  0.00  0.00  0.01  0.00
  C298                    1.00   0.22  0.00  0.00  0.78  0.00  0.00  0.00  0.01  0.00
  C299                    1.00   0.23  0.00  0.00  0.77  0.00  0.00  0.00  0.01  0.00
  C300                    1.00   0.24  0.00  0.00  0.76  0.00  0.00  0.00  0.04  0.00
  C301                    1.00   0.25  0.00  0.00  0.75  0.00  0.00  0.00  0.00  0.00
  C302                    1.00   0.00  0.00  0.00  1.00  0.00  0.00  0.00  0.00  0.00
  C303                    1.00   0.00  0.00  0.00  1.00  0.00  0.00  0.00  0.00  0.00
  C353                    1.00   0.13  0.00  0.00  0.00  0.00  0.00  0.87  0.00  0.00
  
  
  *************************
  Conduit Surcharge Summary
  *************************
  
  ----------------------------------------------------------------------------
                                                           Hours        Hours 
                         --------- Hours Full --------   Above Full   Capacity
  Conduit                Both Ends  Upstream  Dnstream   Normal Flow   Limited
  ----------------------------------------------------------------------------
  FID4914                     0.01      0.01      5.37      0.01         0.01
  C199                        0.01      0.01      0.01      8.49         0.01
  C200                        0.01      0.01      0.01      8.44         0.01
  
  
  ***************************
  Link Pollutant Load Summary
  ***************************
  
  --------------------------------------------------------------
                                 TSS            TP           TDP
  Link                            kg            kg            kg
  --------------------------------------------------------------
  FID1123                     34.269         0.012         0.005
  FID1139                    292.653         0.038         0.020
  FID1148                    505.126         0.068         0.065
  FID1149                    490.067         0.068         0.065
  FID3364                    551.928         0.076         0.082
  FID3671                     15.376         0.005         0.023
  FID3672                    123.539         0.021         0.022
  FID3762                    262.466         0.058         0.098
  FID3765                    461.060         0.102         0.178
  FID4112                    193.589         0.059         0.071
  FID4186                     25.887         0.008         0.018
  FID4187                     12.504         0.007         0.017
  FID4201                    118.450         0.038         0.065
  FID4202                    105.650         0.037         0.065
  FID4203                      0.000         0.000         0.000
  FID4299                      8.591         0.003         0.008
  FID4372                    877.655         0.043         0.314
  FID4498                     96.859         0.161         0.067
  FID4806                      0.638         0.075         0.188
  FID4807                      0.000         0.000         0.001
  FID4882                      0.000         0.000         0.000
  FID4884                    195.648         0.022         0.018
  FID4914                     78.830         0.011         0.011
  FID4915                      1.923         0.001         0.001
  FID4916                      0.021         0.001         0.001
  FID4917                      0.002         0.001         0.001
  FID5307                     47.785         0.003         0.004
  FID5308                      7.572         0.002         0.004
  FID5312                     37.574         0.003         0.004
  FID5865                    525.275         0.072         0.260
  C9                         193.649         1.056         1.299
  C12                        191.628         1.035         1.272
  C13                        237.239         1.030         1.268
  C14                        155.930         0.676         0.836
  C52                        654.532         0.085         0.103
  C130                        79.192         0.006         0.007
  C131                        72.502         0.006         0.007
  C139                         0.000         0.000         0.000
  C191                       294.068         0.693         0.869
  C193                       292.570         0.669         0.837
  C194                       291.074         0.663         0.833
  C195                       290.702         0.660         0.830
  C196                       279.179         0.693         0.853
  C197                       751.527         0.759         1.004
  C198                      1013.655         0.813         1.098
  C199                      1014.072         0.809         1.092
  C200                      1013.258         0.805         1.087
  C201                      1014.130         0.798         1.078
  C202                      1026.800         0.797         1.074
  C203                      1026.682         0.793         1.068
  C204                      1024.931         0.791         1.067
  C205                      1468.463         0.914         1.129
  C206                      1661.346         0.971         1.197
  C207                      1664.302         0.966         1.188
  C208                      1688.345         0.966         1.186
  C209                      1684.016         0.962         1.183
  C210                      1684.077         0.960         1.180
  C211                      1683.311         0.958         1.178
  C212                      2231.230         1.107         1.398
  C213                      2241.711         1.107         1.399
  C214                      2242.687         1.105         1.396
  C215                      2322.324         1.107         1.380
  C216                      2297.003         1.096         1.378
  C217                      2403.121         1.130         1.438
  C218                      3056.265         1.213         1.537
  C219                      3059.845         1.208         1.530
  C220                      3062.036         1.202         1.521
  C221                      3101.995         1.212         1.518
  C222                      3401.705         1.246         1.557
  C223                      3854.401         1.300         1.597
  C224                      3871.188         1.294         1.583
  C225                      3899.222         1.294         1.576
  C226                      3899.008         1.288         1.568
  C227                      3970.210         1.280         1.545
  C228                      3981.774         1.286         1.552
  C229                      4403.478         1.346         1.607
  C230                      4410.556         1.347         1.612
  C231                      4427.191         1.340         1.596
  C232                      4418.534         1.333         1.587
  C233                      4473.477         1.328         1.560
  C234                      4451.862         1.324         1.562
  C235                      4492.865         1.329         1.568
  C236                      5368.414         1.371         1.881
  C237                      5386.724         1.367         1.873
  C238                      5852.257         1.408         1.901
  C239                      5842.693         1.405         1.897
  C240                      5835.413         1.404         1.896
  C241                      5842.500         1.405         1.900
  C242                      5885.051         1.407         1.900
  C243                      5952.582         1.402         1.890
  C244                      5947.098         1.408         1.901
  C245                      5948.668         1.407         1.897
  C246                      6053.837         1.476         2.064
  C247                      6061.313         1.472         2.062
  C248                      6080.282         1.467         2.051
  C249                      6052.756         1.461         2.045
  C250                      6086.769         1.463         2.048
  C251                      6236.619         1.468         2.049
  C252                      6591.477         1.534         2.124
  C253                      6641.068         1.534         2.120
  C254                      6491.838         1.524         2.107
  C255                      6467.286         1.518         2.096
  C256                      6505.777         1.664         2.150
  C257                      6462.364         1.641         2.139
  C258                      6478.718         1.650         2.140
  C259                      6518.349         1.659         2.137
  C260                      6489.800         1.619         2.120
  C261                      6637.260         1.645         2.135
  C262                      6784.097         1.653         2.165
  C263                      6674.402         1.628         2.219
  C264                      7107.153         1.630         2.309
  C265                      6629.123         1.679         2.310
  C266                      6648.185         1.684         2.316
  C267                      6641.953         1.679         2.304
  C268                      6663.522         1.683         2.304
  C269                      6634.031         1.679         2.282
  C270                      6691.511         1.685         2.289
  C271                      6777.834         1.679         2.278
  C272                      6823.296         1.680         2.277
  C273                      7125.690         1.748         2.342
  C274                      7064.285         1.741         2.333
  C275                      7024.501         1.736         2.324
  C276                      6997.397         1.732         2.318
  C277                      6964.620         1.728         2.312
  C278                      6948.987         1.726         2.308
  C279                      6936.041         1.724         2.305
  C280                      6991.535         1.724         2.300
  C281                      7170.293         1.756         2.315
  C282                      7170.960         1.758         2.314
  C283                      7220.068         1.762         2.317
  C284                      7215.484         1.761         2.315
  C285                      7214.215         1.762         2.313
  C286                      7186.527         1.761         2.309
  C287                      7164.312         1.758         2.304
  C288                      7135.387         1.754         2.298
  C289                      7117.088         1.751         2.294
  C290                      7103.973         1.749         2.291
  C291                      7077.581         1.744         2.285
  C292                      7348.313         1.765         2.307
  C293                      7318.726         1.762         2.302
  C294                      7311.798         1.761         2.299
  C295                      7268.972         1.756         2.293
  C296                      7266.446         1.755         2.292
  C297                      7271.544         1.756         2.290
  C298                      7258.443         1.754         2.287
  C299                      7225.398         1.750         2.282
  C300                      7249.553         1.751         2.281
  C301                      7180.410         1.743         2.273
  C302                       192.944         1.050         1.292
  C303                       293.427         0.684         0.856
  C353                       261.748         0.019         0.021
  

  Analysis begun on:  Tue Oct 10 20:12:25 2017
  Analysis ended on:  Tue Oct 10 20:12:40 2017
  Total elapsed time: 00:00:15