
  EPA STORM WATER MANAGEMENT MODEL - VERSION 5.1 (Build 5.1.010)
  --------------------------------------------------------------

  WARNING 04: minimum elevation drop used for Conduit C199
  WARNING 04: minimum elevation drop used for Conduit C200
  WARNING 02: maximum depth increased for Node FID1955
  WARNING 02: maximum depth increased for Node FID1960
  WARNING 02: maximum depth increased for Node FID1965
  WARNING 02: maximum depth increased for Node FID1968
  WARNING 02: maximum depth increased for Node FID2244
  WARNING 02: maximum depth increased for Node FID2442
  WARNING 02: maximum depth increased for Node FID2446
  WARNING 02: maximum depth increased for Node FID5504
  WARNING 02: maximum depth increased for Node FID5527
  WARNING 02: maximum depth increased for Node AFID6926
  WARNING 02: maximum depth increased for Node AFID7376
  
  *********************************************************
  NOTE: The summary statistics displayed in this report are
  based on results found at every computational time step,  
  not just on results from each reporting time step.
  *********************************************************
  
  ****************
  Analysis Options
  ****************
  Flow Units ............... CMS
  Process Models:
    Rainfall/Runoff ........ YES
    RDII ................... NO
    Snowmelt ............... NO
    Groundwater ............ NO
    Flow Routing ........... YES
    Ponding Allowed ........ YES
    Water Quality .......... YES
  Infiltration Method ...... GREEN_AMPT
  Flow Routing Method ...... DYNWAVE
  Starting Date ............ MAY-06-2016 15:00:00
  Ending Date .............. MAY-07-2016 00:00:00
  Antecedent Dry Days ...... 0.0
  Report Time Step ......... 00:01:00
  Wet Time Step ............ 00:01:00
  Dry Time Step ............ 01:00:00
  Routing Time Step ........ 5.00 sec
  Variable Time Step ....... YES
  Maximum Trials ........... 8
  Number of Threads ........ 3
  Head Tolerance ........... 0.001500 m
  
  
  **************************        Volume         Depth
  Runoff Quantity Continuity     hectare-m            mm
  **************************     ---------       -------
  Total Precipitation ......         2.583         6.709
  Evaporation Loss .........         0.000         0.000
  Infiltration Loss ........         1.578         4.098
  Surface Runoff ...........         0.635         1.648
  Final Storage ............         0.372         0.966
  Continuity Error (%) .....        -0.039
  
  
  **************************           TSS            TP           TDP
  Runoff Quality Continuity             kg            kg            kg
  **************************    ----------    ----------    ----------
  Initial Buildup ..........         0.000         0.000         0.000
  Surface Buildup ..........     11553.577         8.715        12.741
  Wet Deposition ...........         0.000         0.000         0.000
  Sweeping Removal .........         0.000         0.000         0.000
  Infiltration Loss ........         0.000         0.000         0.000
  BMP Removal ..............         0.579         0.000         0.001
  Surface Runoff ...........      5789.376         4.410         6.246
  Remaining Buildup ........      5763.622         4.304         6.495
  Continuity Error (%) .....         0.000         0.000         0.000
  
  
  **************************        Volume        Volume
  Flow Routing Continuity        hectare-m      10^6 ltr
  **************************     ---------     ---------
  Dry Weather Inflow .......         0.000         0.000
  Wet Weather Inflow .......         0.635         6.346
  Groundwater Inflow .......         0.000         0.000
  RDII Inflow ..............         0.000         0.000
  External Inflow ..........         1.384        13.843
  External Outflow .........         1.431        14.306
  Flooding Loss ............         0.000         0.000
  Evaporation Loss .........         0.000         0.000
  Exfiltration Loss ........         0.000         0.000
  Initial Stored Volume ....         0.000         0.000
  Final Stored Volume ......         0.594         5.944
  Continuity Error (%) .....        -0.306
  
  
  **************************           TSS            TP           TDP
  Quality Routing Continuity            kg            kg            kg
  **************************    ----------    ----------    ----------
  Dry Weather Inflow .......         0.000         0.000         0.000
  Wet Weather Inflow .......      5756.194         4.388         6.162
  Groundwater Inflow .......         0.000         0.000         0.000
  RDII Inflow ..............         0.000         0.000         0.000
  External Inflow ..........       137.985         1.039         1.284
  External Outflow .........      5721.084         5.056         6.881
  Flooding Loss ............         0.000         0.000         0.000
  Exfiltration Loss ........         0.000         0.000         0.000
  Mass Reacted .............         0.000         0.000         0.000
  Initial Stored Mass ......         0.000         0.000         0.000
  Final Stored Mass ........        43.966         0.385         0.555
  Continuity Error (%) .....         2.191        -0.270         0.130
  
  
  *************************
  Highest Continuity Errors
  *************************
  Node FID2824 (2.44%)
  Node FID2827 (2.33%)
  Node J72 (1.67%)
  Node J19 (1.53%)
  Node J81 (1.50%)
  
  
  ***************************
  Time-Step Critical Elements
  ***************************
  Link C241 (91.57%)
  Link C14 (7.53%)
  
  
  ********************************
  Highest Flow Instability Indexes
  ********************************
  All links are stable.
  
  
  *************************
  Routing Time Step Summary
  *************************
  Minimum Time Step           :     0.29 sec
  Average Time Step           :     0.95 sec
  Maximum Time Step           :     5.00 sec
  Percent in Steady State     :     0.00
  Average Iterations per Step :     2.00
  Percent Not Converging      :     0.00
  
  
  ***************************
  Subcatchment Runoff Summary
  ***************************
  
  --------------------------------------------------------------------------------------------------------
                            Total      Total      Total      Total      Total       Total     Peak  Runoff
                           Precip      Runon       Evap      Infil     Runoff      Runoff   Runoff   Coeff
  Subcatchment                 mm         mm         mm         mm         mm    10^6 ltr      CMS
  --------------------------------------------------------------------------------------------------------
  S0                         5.84       0.00       0.00       5.34       0.38        0.00     0.00   0.065
  S1                         5.84       0.00       0.00       3.75       1.54        0.15     0.04   0.263
  S2                         6.35       0.00       0.00       3.54       2.12        0.37     0.10   0.334
  S3                         5.84       0.00       0.00       4.55       0.96        0.03     0.02   0.165
  S4                         5.84       0.00       0.00       3.88       1.45        0.14     0.08   0.248
  S6                         6.35       0.00       0.00       0.83       4.68        0.09     0.03   0.738
  S7                         6.35       0.00       0.00       2.31       1.11        0.43     0.10   0.174
  S8                         6.35       0.00       0.00       0.70       4.85        0.00     0.00   0.764
  S9                         6.35       0.00       0.00       3.16       2.49        0.00     0.00   0.392
  S10                        6.35       0.00       0.00       3.44       2.23        0.01     0.00   0.351
  S11                        6.35       0.00       0.00       5.49       0.66        0.00     0.00   0.103
  S12                        6.35       0.00       0.00       3.65       2.05        0.00     0.00   0.324
  S13                        6.35       0.00       0.00       3.80       1.92        0.14     0.04   0.303
  S14                        6.35       0.00       0.00       5.14       0.92        0.01     0.00   0.145
  S16                        6.35       0.00       0.00       2.00       2.40        0.13     0.05   0.378
  S17                        6.35       0.00       0.00       3.60       2.06        0.40     0.11   0.325
  S18                        6.35       0.00       0.00       1.96       3.64        0.00     0.00   0.573
  S19                        6.35       0.00       0.00       4.51       1.39        0.03     0.01   0.219
  S20                        6.35       0.00       0.00       3.72       2.00        0.01     0.00   0.315
  S21                        6.35       0.00       0.00       3.81       1.56        0.83     0.22   0.245
  S22                        6.35       0.00       0.00       3.06       2.58        0.00     0.00   0.406
  S23                        6.35       0.00       0.00       4.74       1.22        0.02     0.01   0.192
  S24                        6.35       0.00       0.00       4.61       1.32        0.03     0.01   0.208
  S25                        6.35       0.00       0.00       3.85       1.89        0.02     0.01   0.298
  S27                        6.35       0.00       0.00       4.08       1.73        0.01     0.00   0.272
  S28                        5.84       0.00       0.00       5.84       0.00        0.00     0.00   0.001
  S29                        5.84       0.00       0.00       5.81       0.02        0.00     0.00   0.004
  S30                        6.35       0.00       0.00       6.34       0.01        0.00     0.00   0.002
  S31                        6.35       0.00       0.00       6.35       0.00        0.00     0.00   0.001
  S32                        6.35       0.00       0.00       5.29       0.81        0.00     0.00   0.128
  S33                        6.35       0.00       0.00       2.48       3.13        0.04     0.02   0.492
  S34                        6.35       0.00       0.00       3.21       1.38        0.49     0.10   0.217
  S35                        6.35       0.00       0.00       4.60       1.33        0.00     0.00   0.210
  S36                        6.35       0.00       0.00       5.52       0.63        0.01     0.00   0.099
  S37                        6.35       0.00       0.00       3.47       2.19        0.01     0.00   0.344
  S39                        6.35       0.00       0.00       4.69       1.26        0.19     0.06   0.198
  S40                        6.35       0.00       0.00       5.12       0.93        0.02     0.01   0.147
  S41                        6.35       0.00       0.00       3.70       2.01        0.27     0.08   0.316
  S42                        6.35       0.00       0.00       3.95       1.82        0.18     0.05   0.286
  S43                        6.35       0.00       0.00       5.32       0.78        0.02     0.01   0.123
  S44                        6.35       0.00       0.00       3.99       1.78        0.40     0.11   0.280
  S45                        8.13       0.00       0.00       5.91       1.82        0.00     0.00   0.224
  S47                        8.13       0.00       0.00       5.24       2.36        0.10     0.07   0.290
  S48                        8.13       0.00       0.00       5.66       2.04        0.01     0.00   0.251
  S49                        8.13       0.00       0.00       5.32       2.26        0.42     0.22   0.278
  S51                        8.13       0.00       0.00       7.42       0.59        0.01     0.00   0.072
  S52                        8.13       0.00       0.00       5.53       2.12        0.14     0.10   0.260
  S53                        8.13       0.00       0.00       5.43       2.18        0.30     0.17   0.268
  S54                        8.13       0.00       0.00       6.08       1.65        0.16     0.04   0.203
  S55                        8.13       0.00       0.00       5.52       2.09        0.34     0.09   0.258
  S56                        8.13       0.00       0.00       6.73       1.13        0.00     0.00   0.139
  S57                        8.13       0.00       0.00       5.20       2.37        0.02     0.01   0.291
  S58                        8.13       0.00       0.00       5.74       1.93        0.08     0.02   0.237
  S59                        8.13       0.00       0.00       7.42       0.57        0.01     0.00   0.070
  S60                        8.13       0.00       0.00       6.66       1.18        0.03     0.01   0.145
  S61                        8.13       0.00       0.00       7.52       0.49        0.00     0.00   0.061
  S62                        8.13       0.00       0.00       7.22       0.74        0.02     0.01   0.091
  S63                        6.35       0.00       0.00       5.70       0.49        0.01     0.00   0.078
  S64                        6.35       0.00       0.00       4.12       1.69        0.02     0.01   0.267
  S65                        6.35       0.00       0.00       4.99       1.03        0.17     0.05   0.162
  
  
  ****************************
  Subcatchment Washoff Summary
  ****************************
  
  --------------------------------------------------------------
                                 TSS            TP           TDP
  Subcatchment                    kg            kg            kg
  --------------------------------------------------------------
  S0                           0.210         0.000         0.000
  S1                          78.228         0.031         0.074
  S2                         269.597         0.104         0.200
  S3                          51.478         0.013         0.035
  S4                         146.054         0.043         0.097
  S6                          11.073         0.004         0.014
  S7                         387.766         0.225         1.228
  S8                           1.104         0.000         0.000
  S9                           1.257         0.000         0.001
  S10                         12.679         0.003         0.006
  S11                          1.353         0.000         0.001
  S12                          0.748         0.000         0.000
  S13                         61.477         0.020         0.060
  S14                         18.515         0.011         0.014
  S16                        108.163         0.035         0.045
  S17                        299.309         0.129         0.233
  S18                          1.278         0.000         0.001
  S19                         42.712         0.031         0.041
  S20                         20.710         0.008         0.011
  S21                        264.501         1.352         1.289
  S22                          8.369         0.002         0.004
  S23                         21.112         0.031         0.038
  S24                         39.727         0.012         0.025
  S25                         14.656         0.021         0.027
  S27                         22.522         0.009         0.014
  S28                          0.000         0.000         0.000
  S29                          0.000         0.000         0.000
  S30                          0.000         0.000         0.000
  S31                          0.000         0.000         0.000
  S32                          3.866         0.007         0.006
  S33                         38.299         0.013         0.021
  S34                        591.725         0.544         0.144
  S35                         12.184         0.006         0.008
  S36                         10.711         0.018         0.013
  S37                         16.442         0.009         0.013
  S39                        254.158         0.170         0.243
  S40                         30.112         0.040         0.040
  S41                        285.694         0.094         0.180
  S42                        203.121         0.087         0.140
  S43                         18.604         0.033         0.028
  S44                        424.992         0.208         0.327
  S45                          1.865         0.001         0.001
  S47                        106.677         0.046         0.074
  S48                         11.995         0.004         0.006
  S49                        358.916         0.189         0.293
  S51                          9.451         0.017         0.016
  S52                        140.359         0.060         0.098
  S53                        262.839         0.088         0.168
  S54                        193.445         0.133         0.186
  S55                        302.232         0.190         0.277
  S56                          0.105         0.000         0.000
  S57                          6.816         0.013         0.015
  S58                         98.707         0.037         0.060
  S59                         59.486         0.015         0.028
  S60                         31.918         0.046         0.055
  S61                         14.589         0.005         0.008
  S62                         24.178         0.043         0.045
  S63                         14.690         0.009         0.012
  S64                         14.845         0.027         0.035
  S65                        361.760         0.176         0.249
  --------------------------------------------------------------
  System                    5789.376         4.410         6.246
  
  
  ******************
  Node Depth Summary
  ******************
  
  ---------------------------------------------------------------------------------
                                 Average  Maximum  Maximum  Time of Max    Reported
                                   Depth    Depth      HGL   Occurrence   Max Depth
  Node                 Type       Meters   Meters   Meters  days hr:min      Meters
  ---------------------------------------------------------------------------------
  FID1936              JUNCTION     0.15     0.33  1376.63     0  04:05        0.10
  FID1955              JUNCTION     0.16     0.29  1376.21     0  04:15        0.09
  FID1960              JUNCTION     0.15     0.25  1376.11     0  04:15        0.08
  FID1965              JUNCTION     0.15     0.24  1376.54     0  04:15        0.07
  FID1968              JUNCTION     0.14     0.20  1376.60     0  04:15        0.06
  FID2239              JUNCTION     0.15     0.27  1374.78     0  03:30        0.08
  FID2241              JUNCTION     0.13     0.19  1373.32     0  04:05        0.06
  FID2242              JUNCTION     0.14     0.20  1374.24     0  04:05        0.06
  FID2244              JUNCTION     0.13     0.19  1374.55     0  03:30        0.06
  FID2440              JUNCTION     0.39     0.55  1374.80     0  04:20        0.17
  FID2442              JUNCTION     0.00     0.00  1375.27     0  00:00        0.00
  FID2446              JUNCTION     0.16     0.41  1376.21     0  04:05        0.12
  FID2447              JUNCTION     0.15     0.36  1376.06     0  04:05        0.11
  FID2455              JUNCTION     0.30     0.49  1374.48     0  04:20        0.15
  FID2711              JUNCTION     0.13     0.22  1370.40     0  04:05        0.07
  FID2719              JUNCTION     0.16     0.37  1370.47     0  04:05        0.11
  FID2720              JUNCTION     0.16     0.33  1370.53     0  04:05        0.10
  FID2824              JUNCTION     0.12     0.18  1371.46     0  04:21        0.05
  FID2827              JUNCTION     0.13     0.23  1371.53     0  04:20        0.07
  FID2828              JUNCTION     0.14     0.22  1371.54     0  04:20        0.07
  FID2832              JUNCTION     0.16     0.28  1370.88     0  04:10        0.08
  FID2833              JUNCTION     0.21     0.42  1371.04     0  04:10        0.13
  FID2839              JUNCTION     0.17     0.26  1371.46     0  04:10        0.08
  FID2873              JUNCTION     0.17     0.32  1371.02     0  04:10        0.10
  FID2964              JUNCTION     0.16     0.24  1371.02     0  04:20        0.07
  FID2965              JUNCTION     0.41     0.74  1371.00     0  04:41        0.22
  FID4584              JUNCTION     0.13     0.24  1371.58     0  04:10        0.07
  FID5068              JUNCTION     0.13     0.19  1375.57     0  03:30        0.06
  FID5072              JUNCTION     0.48     0.71  1374.00     0  04:28        0.22
  FID5140              JUNCTION     0.16     0.26  1373.48     0  03:30        0.08
  FID5435              JUNCTION     0.16     0.27  1373.02     0  04:20        0.08
  FID5437              JUNCTION     0.12     0.17  1373.12     0  04:20        0.05
  FID5503              JUNCTION     0.12     0.16  1371.49     0  04:10        0.05
  FID5504              JUNCTION     0.15     0.23  1371.59     0  04:10        0.07
  FID5527              JUNCTION     0.14     0.20  1372.70     0  04:10        0.06
  FID5568              JUNCTION     0.46     0.71  1373.10     0  04:33        0.22
  FID5784              JUNCTION     0.47     0.72  1372.71     0  04:35        0.22
  FID5785              JUNCTION     0.14     0.23  1374.66     0  04:06        0.07
  AFID6926             JUNCTION     0.15     0.23  1370.03     0  04:15        0.07
  AFID7360             JUNCTION     0.46     0.82  1370.95     0  04:42        0.25
  AFID7363             JUNCTION     0.45     0.80  1370.97     0  04:42        0.24
  AFID7376             JUNCTION     0.18     0.35  1371.58     0  04:10        0.11
  AFID7377             JUNCTION     0.38     0.64  1371.32     0  04:37        0.19
  AFID7705             JUNCTION     0.51     0.58  1375.54     0  04:15        0.18
  AFID7706             JUNCTION     0.56     0.63  1375.55     0  04:15        0.19
  AFID7792             JUNCTION     0.17     0.33  1375.13     0  04:05        0.10
  AFID8223             JUNCTION     0.47     0.72  1372.72     0  04:35        0.22
  J1                   JUNCTION     0.74     0.75  1375.75     0  04:17        0.23
  FID4901              JUNCTION     0.46     0.52  1375.59     0  04:16        0.16
  J9                   JUNCTION     0.63     0.64  1375.74     0  04:17        0.20
  J11                  JUNCTION     0.47     0.49  1375.70     0  04:17        0.15
  J12                  JUNCTION     0.47     0.51  1375.62     0  04:17        0.15
  J13                  JUNCTION     0.46     0.51  1375.59     0  04:16        0.16
  FID4902              JUNCTION     0.48     0.54  1375.59     0  04:16        0.16
  J14                  JUNCTION     0.38     0.48  1375.40     0  04:05        0.15
  J15                  JUNCTION     0.35     0.48  1375.15     0  04:07        0.15
  J16                  JUNCTION     0.36     0.49  1375.13     0  04:08        0.15
  FID2449              JUNCTION     0.40     0.56  1374.87     0  04:12        0.17
  J17                  JUNCTION     0.29     0.49  1374.46     0  04:20        0.15
  J19                  JUNCTION     0.42     0.65  1374.20     0  04:25        0.20
  FID5069              JUNCTION     0.51     0.74  1373.99     0  04:29        0.22
  FID5139              JUNCTION     0.47     0.72  1373.07     0  04:32        0.22
  J24                  JUNCTION     0.47     0.72  1373.09     0  04:32        0.22
  FID4984              JUNCTION     0.49     0.74  1372.70     0  04:36        0.22
  FID2669              JUNCTION     0.33     0.60  1369.04     0  04:45        0.18
  FID2712              JUNCTION     0.35     0.63  1369.82     0  04:44        0.19
  FID2718              JUNCTION     0.36     0.64  1369.88     0  04:44        0.19
  FID2838              JUNCTION     0.53     0.90  1370.84     0  04:42        0.27
  FID2825              JUNCTION     0.58     0.97  1370.88     0  04:42        0.30
  FID2823              JUNCTION     0.63     1.02  1370.90     0  04:41        0.31
  FID5505              JUNCTION     0.52     0.90  1370.92     0  04:42        0.27
  FID5436              JUNCTION     0.50     0.76  1372.08     0  04:32        0.23
  FID5438              JUNCTION     0.43     0.69  1372.11     0  04:33        0.21
  J49                  JUNCTION     0.50     0.56  1375.58     0  04:16        0.17
  J50                  JUNCTION     0.53     0.60  1375.56     0  04:16        0.18
  J51                  JUNCTION     0.59     0.66  1375.55     0  04:15        0.20
  J52                  JUNCTION     0.60     0.67  1375.55     0  04:15        0.20
  J53                  JUNCTION     0.38     0.48  1375.40     0  04:06        0.15
  J54                  JUNCTION     0.39     0.47  1375.42     0  04:07        0.14
  J55                  JUNCTION     0.44     0.51  1375.53     0  04:15        0.15
  J56                  JUNCTION     0.41     0.48  1375.51     0  04:15        0.15
  J57                  JUNCTION     0.39     0.46  1375.49     0  04:11        0.14
  J58                  JUNCTION     0.39     0.47  1375.44     0  04:07        0.14
  FID1935              JUNCTION     0.39     0.49  1375.38     0  04:05        0.15
  J59                  JUNCTION     0.39     0.49  1375.36     0  04:06        0.15
  J60                  JUNCTION     0.38     0.48  1375.30     0  04:07        0.15
  J61                  JUNCTION     0.36     0.47  1375.23     0  04:08        0.14
  J62                  JUNCTION     0.35     0.46  1375.21     0  04:08        0.14
  J63                  JUNCTION     0.36     0.49  1375.17     0  04:08        0.15
  J64                  JUNCTION     0.35     0.48  1375.09     0  04:08        0.15
  J65                  JUNCTION     0.31     0.45  1375.03     0  04:10        0.14
  J66                  JUNCTION     0.39     0.55  1374.76     0  04:20        0.17
  J67                  JUNCTION     0.39     0.54  1374.69     0  04:21        0.17
  J68                  JUNCTION     0.37     0.53  1374.59     0  04:21        0.16
  J69                  JUNCTION     0.50     0.71  1374.44     0  04:20        0.22
  J70                  JUNCTION     0.48     0.69  1374.34     0  04:22        0.21
  J71                  JUNCTION     0.46     0.68  1374.27     0  04:23        0.21
  J72                  JUNCTION     0.49     0.71  1374.06     0  04:27        0.22
  J73                  JUNCTION     0.51     0.74  1373.96     0  04:29        0.22
  J74                  JUNCTION     0.51     0.74  1373.72     0  04:31        0.22
  J75                  JUNCTION     0.52     0.74  1373.58     0  04:32        0.23
  J76                  JUNCTION     0.47     0.72  1373.06     0  04:32        0.22
  J77                  JUNCTION     0.47     0.72  1372.93     0  04:33        0.22
  J78                  JUNCTION     0.47     0.72  1372.79     0  04:34        0.22
  J79                  JUNCTION     0.47     0.72  1372.73     0  04:35        0.22
  J80                  JUNCTION     0.40     0.66  1372.14     0  04:34        0.20
  J81                  JUNCTION     0.48     0.73  1371.73     0  04:36        0.22
  J82                  JUNCTION     0.47     0.72  1371.65     0  04:37        0.22
  J83                  JUNCTION     0.40     0.67  1371.47     0  04:38        0.20
  J84                  JUNCTION     0.36     0.60  1371.24     0  04:38        0.18
  J85                  JUNCTION     0.36     0.63  1371.15     0  04:39        0.19
  J86                  JUNCTION     0.38     0.68  1371.05     0  04:41        0.21
  J87                  JUNCTION     0.44     0.78  1370.97     0  04:41        0.24
  J88                  JUNCTION     0.51     0.88  1370.93     0  04:42        0.27
  J89                  JUNCTION     0.55     0.93  1370.91     0  04:42        0.28
  J90                  JUNCTION     0.51     0.88  1370.83     0  04:42        0.27
  J91                  JUNCTION     0.50     0.88  1370.76     0  04:42        0.27
  J92                  JUNCTION     0.50     0.87  1370.71     0  04:42        0.27
  J93                  JUNCTION     0.50     0.87  1370.60     0  04:43        0.27
  J94                  JUNCTION     0.50     0.87  1370.53     0  04:43        0.27
  J95                  JUNCTION     0.50     0.87  1370.51     0  04:43        0.26
  J96                  JUNCTION     0.49     0.86  1370.41     0  04:43        0.26
  J97                  JUNCTION     0.49     0.85  1370.34     0  04:44        0.26
  J98                  JUNCTION     0.47     0.83  1370.27     0  04:44        0.25
  J99                  JUNCTION     0.46     0.81  1370.20     0  04:45        0.25
  J100                 JUNCTION     0.45     0.78  1370.14     0  04:45        0.24
  J101                 JUNCTION     0.43     0.75  1370.07     0  04:45        0.23
  J102                 JUNCTION     0.36     0.64  1369.91     0  04:44        0.20
  J103                 JUNCTION     0.36     0.64  1369.86     0  04:44        0.19
  J104                 JUNCTION     0.35     0.62  1369.79     0  04:44        0.19
  J105                 JUNCTION     0.35     0.61  1369.74     0  04:45        0.19
  J106                 JUNCTION     0.33     0.60  1369.67     0  04:45        0.18
  J107                 JUNCTION     0.33     0.60  1369.53     0  04:45        0.18
  J108                 JUNCTION     0.33     0.60  1369.39     0  04:46        0.18
  J109                 JUNCTION     0.33     0.60  1369.28     0  04:46        0.18
  J110                 JUNCTION     0.33     0.60  1369.18     0  04:46        0.18
  J111                 JUNCTION     0.33     0.60  1369.08     0  04:45        0.18
  J112                 JUNCTION     0.33     0.60  1368.93     0  04:45        0.18
  J113                 JUNCTION     0.33     0.60  1368.83     0  04:46        0.18
  J114                 JUNCTION     0.33     0.60  1368.72     0  04:46        0.18
  J115                 JUNCTION     0.33     0.60  1368.66     0  04:46        0.18
  J116                 JUNCTION     0.33     0.60  1368.58     0  04:47        0.18
  J117                 JUNCTION     0.33     0.60  1368.48     0  04:47        0.18
  J118                 JUNCTION     0.34     0.60  1368.37     0  04:47        0.18
  J119                 JUNCTION     0.34     0.60  1368.31     0  04:47        0.18
  J120                 JUNCTION     0.36     0.61  1368.21     0  04:48        0.19
  FID2451              JUNCTION     0.39     0.54  1374.83     0  04:12        0.17
  J121                 JUNCTION     0.38     0.64  1371.39     0  04:37        0.20
  J122                 JUNCTION     0.38     0.64  1371.36     0  04:37        0.20
  FID3706              JUNCTION     0.50     0.87  1370.61     0  04:43        0.27
  FID2831              JUNCTION     0.50     0.87  1370.49     0  04:43        0.26
  FID2689              OUTFALL      0.22     0.40  1367.90     0  04:48        0.12
  
  
  *******************
  Node Inflow Summary
  *******************
  
  -------------------------------------------------------------------------------------------------
                                  Maximum  Maximum                  Lateral       Total        Flow
                                  Lateral    Total  Time of Max      Inflow      Inflow     Balance
                                   Inflow   Inflow   Occurrence      Volume      Volume       Error
  Node                 Type           CMS      CMS  days hr:min    10^6 ltr    10^6 ltr     Percent
  -------------------------------------------------------------------------------------------------
  FID1936              JUNCTION     0.100    0.100     0  04:05       0.142       0.142       0.121
  FID1955              JUNCTION     0.092    0.092     0  04:15       0.341       0.341       0.052
  FID1960              JUNCTION     0.042    0.042     0  04:15       0.156       0.156       0.111
  FID1965              JUNCTION     0.021    0.021     0  04:15      0.0785      0.0785       0.223
  FID1968              JUNCTION     0.006    0.006     0  04:15      0.0236      0.0236       0.743
  FID2239              JUNCTION     0.009    0.009     0  03:30      0.0253      0.0253       1.782
  FID2241              JUNCTION     0.000    0.007     0  04:05           0      0.0237       0.732
  FID2242              JUNCTION     0.007    0.007     0  04:05      0.0239      0.0239       0.768
  FID2244              JUNCTION     0.004    0.004     0  03:30     0.00926     0.00926       1.916
  FID2440              JUNCTION     0.000    0.881     0  04:10           0        13.9       0.278
  FID2442              JUNCTION     0.000    0.000     0  00:00           0           0       0.000 ltr
  FID2446              JUNCTION     0.074    0.074     0  04:05         0.1         0.1       1.130
  FID2447              JUNCTION     0.000    0.074     0  04:05           0      0.0993      -0.124
  FID2455              JUNCTION     0.053    0.914     0  04:20       0.184        13.9       0.267
  FID2711              JUNCTION     0.000    0.020     0  04:05           0      0.0309       0.646
  FID2719              JUNCTION     0.081    0.081     0  04:05       0.144       0.144       0.224
  FID2720              JUNCTION     0.021    0.021     0  04:05      0.0311      0.0311       0.731
  FID2824              JUNCTION     0.000    0.003     0  04:20    0.000797     0.00677       2.496
  FID2827              JUNCTION     0.000    0.003     0  04:20    0.000536     0.00612       2.390
  FID2828              JUNCTION     0.003    0.003     0  04:20     0.00581     0.00581       4.039
  FID2832              JUNCTION     0.000    0.102     0  04:10           0       0.365       0.071
  FID2833              JUNCTION     0.103    0.103     0  04:10       0.365       0.365       0.077
  FID2839              JUNCTION     0.103    0.103     0  04:10       0.433       0.433       0.059
  FID2873              JUNCTION     0.027    0.027     0  04:10      0.0879      0.0879       0.850
  FID2964              JUNCTION     0.046    0.046     0  04:20       0.134       0.134       0.128
  FID2965              JUNCTION     0.000    1.229     0  04:39           0        14.1       0.365
  FID4584              JUNCTION     0.000    0.001     0  03:33           0    0.000498      43.608
  FID5068              JUNCTION     0.005    0.005     0  03:30      0.0114      0.0114       1.539
  FID5072              JUNCTION     0.058    0.977     0  04:26       0.186        13.7       0.252
  FID5140              JUNCTION     0.104    0.104     0  03:30       0.487       0.487       0.030
  FID5435              JUNCTION     0.224    0.224     0  04:20       0.834       0.834       0.022
  FID5437              JUNCTION     0.002    0.002     0  04:20     0.00357     0.00357       5.138
  FID5503              JUNCTION     0.000    0.000     0  03:55    0.000451    0.000451      62.482
  FID5504              JUNCTION     0.041    0.041     0  04:10       0.145       0.145       0.172
  FID5527              JUNCTION     0.009    0.009     0  04:10        0.03        0.03       0.588
  FID5568              JUNCTION     0.002    0.974     0  04:32     0.00445        13.3       0.895
  FID5784              JUNCTION     0.000    1.063     0  04:33           0        13.7       0.123
  FID5785              JUNCTION     0.000    0.008     0  03:30           0      0.0249       0.556
  AFID6926             JUNCTION     0.042    0.042     0  04:15       0.151       0.151       0.117
  AFID7360             JUNCTION     0.000    1.225     0  04:40    0.000272          14       0.269
  AFID7363             JUNCTION     0.000    1.225     0  04:39           0        14.1       0.130
  AFID7376             JUNCTION     0.109    0.109     0  04:10       0.397       0.397       0.018
  AFID7377             JUNCTION     0.000    1.222     0  04:34           0        14.2       0.139
  AFID7705             JUNCTION     0.000    0.592     0  04:15           0        13.7       0.297
  AFID7706             JUNCTION     0.000    0.551     0  04:17           0        13.5       0.283
  AFID7792             JUNCTION     0.112    0.112     0  04:05       0.402       0.402       0.044
  AFID8223             JUNCTION     0.000    1.060     0  04:33           0        13.7       0.028
  J1                   JUNCTION     0.661    0.661     0  04:15          21          21       0.162
  FID4901              JUNCTION     0.000    0.460     0  04:19           0        13.7       0.258
  J9                   JUNCTION     0.000    0.661     0  04:15           0          21       0.330
  J11                  JUNCTION     0.000    0.660     0  04:15           0        20.9       0.583
  J12                  JUNCTION     0.004    0.662     0  04:21      0.0145        20.8       0.637
  J13                  JUNCTION    -0.220    0.666     0  04:35       -7.13        20.7      -0.201
  FID4902              JUNCTION     0.000    0.466     0  04:15           0        13.6       0.405
  J14                  JUNCTION     0.172    0.675     0  04:05       0.304        13.6       0.221
  J15                  JUNCTION     0.219    0.834     0  04:05       0.424        13.9       0.186
  J16                  JUNCTION     0.005    0.828     0  04:05     0.00589        13.9       0.187
  FID2449              JUNCTION     0.001    0.797     0  04:10    0.000848        13.7       1.479
  J17                  JUNCTION     0.079    0.978     0  04:20       0.273        14.1       0.133
  J19                  JUNCTION     0.011    0.964     0  04:21      0.0238        13.9       1.551
  FID5069              JUNCTION     0.000    0.978     0  04:27           0        13.6       0.225
  FID5139              JUNCTION     0.000    1.045     0  04:31           0        13.7       0.067
  J24                  JUNCTION     0.015    0.979     0  04:35      0.0363        13.2       0.101
  FID4984              JUNCTION     0.000    1.064     0  04:33           0        13.7       1.030
  FID2669              JUNCTION     0.000    1.314     0  04:45           0        14.5       0.092
  FID2712              JUNCTION     0.000    1.296     0  04:43           0        14.5       0.112
  FID2718              JUNCTION     0.000    1.294     0  04:43           0        14.5       0.081
  FID2838              JUNCTION     0.000    1.262     0  04:40           0        14.3       0.233
  FID2825              JUNCTION     0.000    1.232     0  04:42           0        13.9       0.385
  FID2823              JUNCTION     0.000    1.232     0  04:41           0          14       0.630
  FID5505              JUNCTION     0.000    1.233     0  04:41           0        14.1       0.169
  FID5436              JUNCTION     0.000    1.195     0  04:30           0        14.3       1.033
  FID5438              JUNCTION     0.000    1.066     0  04:37           0        13.5       0.188
  J49                  JUNCTION     0.000    0.466     0  04:20           0        13.6       0.652
  J50                  JUNCTION     0.000    0.469     0  04:20    0.000174        13.5       1.132
  J51                  JUNCTION     0.000    0.477     0  04:34           0        13.3       0.903
  J52                  JUNCTION     0.000    0.484     0  04:34           0        13.2       0.267
  J53                  JUNCTION     0.000    0.598     0  04:15           0        13.3       0.242
  J54                  JUNCTION     0.000    0.595     0  04:15           0        13.4       0.358
  J55                  JUNCTION     0.000    0.591     0  04:15           0        13.6       0.337
  J56                  JUNCTION     0.000    0.591     0  04:15           0        13.6       0.364
  J57                  JUNCTION     0.000    0.592     0  04:15           0        13.5       0.458
  J58                  JUNCTION     0.001    0.594     0  04:16     0.00425        13.5       0.490
  FID1935              JUNCTION     0.000    0.764     0  04:05           0        13.7       0.285
  J59                  JUNCTION     0.000    0.751     0  04:05           0        13.7       0.402
  J60                  JUNCTION     0.005    0.733     0  04:05     0.00592        13.6       0.627
  J61                  JUNCTION     0.000    0.703     0  04:06           0        13.6       0.422
  J62                  JUNCTION     0.000    0.698     0  04:08           0        13.5       0.191
  J63                  JUNCTION     0.000    0.699     0  04:09           0        13.5       0.194
  J64                  JUNCTION     0.000    0.822     0  04:06           0        13.8       0.195
  J65                  JUNCTION     0.014    0.822     0  04:05      0.0189        13.8       1.137
  J66                  JUNCTION     0.000    0.879     0  04:11           0        13.9       0.350
  J67                  JUNCTION     0.000    0.877     0  04:12           0        13.8       0.520
  J68                  JUNCTION     0.006    0.877     0  04:13       0.015        13.8       0.557
  J69                  JUNCTION     0.000    0.976     0  04:20           0        14.1       0.557
  J70                  JUNCTION     0.003    0.973     0  04:20     0.00758          14       0.715
  J71                  JUNCTION     0.000    0.966     0  04:21           0        13.9       0.520
  J72                  JUNCTION     0.007    0.957     0  04:24      0.0205        13.7       1.697
  J73                  JUNCTION     0.000    0.977     0  04:27           0        13.6       0.510
  J74                  JUNCTION     0.000    0.977     0  04:28           0        13.5       0.748
  J75                  JUNCTION     0.004    0.976     0  04:30     0.00787        13.4       1.162
  J76                  JUNCTION     0.000    1.044     0  04:31           0        13.7       0.276
  J77                  JUNCTION     0.048    1.065     0  04:31       0.173        13.8       0.508
  J78                  JUNCTION     0.000    1.062     0  04:32           0        13.7       0.380
  J79                  JUNCTION     0.000    1.060     0  04:33           0        13.7       0.138
  J80                  JUNCTION     0.008    1.061     0  04:35        0.02        13.6       0.860
  J81                  JUNCTION     0.001    1.191     0  04:32     0.00349        14.2       1.521
  J82                  JUNCTION     0.000    1.184     0  04:35           0          14       0.604
  J83                  JUNCTION     0.000    1.182     0  04:37           0        13.9       0.464
  J84                  JUNCTION     0.000    1.221     0  04:35           0        14.2       0.247
  J85                  JUNCTION     0.000    1.220     0  04:36           0        14.1       0.460
  J86                  JUNCTION     0.000    1.218     0  04:37           0        14.1       0.489
  J87                  JUNCTION     0.002    1.227     0  04:39     0.00539        14.1       0.202
  J88                  JUNCTION     0.000    1.225     0  04:41           0          14       0.305
  J89                  JUNCTION     0.000    1.233     0  04:41           0        14.1       0.461
  J90                  JUNCTION     0.000    1.262     0  04:41           0        14.3       0.168
  J91                  JUNCTION     0.000    1.261     0  04:41           0        14.3       0.233
  J92                  JUNCTION     0.000    1.261     0  04:41    2.17e-06        14.2       0.292
  J93                  JUNCTION     0.000    1.265     0  04:42           0        14.2       0.156
  J94                  JUNCTION     0.000    1.265     0  04:43    3.92e-06        14.2       0.176
  J95                  JUNCTION     0.000    1.265     0  04:43           0        14.2       0.067
  J96                  JUNCTION     0.000    1.287     0  04:41           0        14.5       0.249
  J97                  JUNCTION     0.000    1.286     0  04:42           0        14.5       0.210
  J98                  JUNCTION     0.000    1.286     0  04:43           0        14.5       0.185
  J99                  JUNCTION     0.000    1.285     0  04:44           0        14.4       0.158
  J100                 JUNCTION     0.000    1.285     0  04:44           0        14.4       0.133
  J101                 JUNCTION     0.000    1.285     0  04:45           0        14.4       0.154
  J102                 JUNCTION     0.000    1.285     0  04:45           0        14.4       0.122
  J103                 JUNCTION     0.000    1.294     0  04:44           0        14.5       0.091
  J104                 JUNCTION     0.000    1.296     0  04:44           0        14.5       0.120
  J105                 JUNCTION     0.000    1.296     0  04:44           0        14.5       0.147
  J106                 JUNCTION     0.000    1.296     0  04:44           0        14.4       0.165
  J107                 JUNCTION     0.000    1.296     0  04:45           0        14.4       0.170
  J108                 JUNCTION     0.000    1.295     0  04:45    1.39e-05        14.4       0.154
  J109                 JUNCTION     0.000    1.295     0  04:46           0        14.4       0.130
  J110                 JUNCTION     0.000    1.295     0  04:46           0        14.4       0.126
  J111                 JUNCTION     0.000    1.295     0  04:47    0.000123        14.3       0.093
  J112                 JUNCTION     0.000    1.314     0  04:45           0        14.5       0.131
  J113                 JUNCTION     0.000    1.314     0  04:45           0        14.4       0.128
  J114                 JUNCTION     0.000    1.314     0  04:45           0        14.4       0.108
  J115                 JUNCTION     0.000    1.313     0  04:46           0        14.4       0.080
  J116                 JUNCTION     0.000    1.313     0  04:46     3.8e-06        14.4       0.105
  J117                 JUNCTION     0.000    1.313     0  04:46           0        14.4       0.130
  J118                 JUNCTION     0.000    1.313     0  04:47           0        14.4       0.114
  J119                 JUNCTION     0.000    1.313     0  04:47           0        14.3       0.112
  J120                 JUNCTION     0.000    1.313     0  04:47           0        14.3       0.139
  FID2451              JUNCTION     0.000    0.796     0  04:11           0        13.6       0.274
  J121                 JUNCTION     0.003    1.183     0  04:38      0.0106        13.8       0.138
  J122                 JUNCTION     0.000    1.183     0  04:38    0.000728        13.8       0.120
  FID3706              JUNCTION     0.000    1.266     0  04:41           0        14.3       0.227
  FID2831              JUNCTION     0.000    1.287     0  04:41           0        14.5       0.152
  FID2689              OUTFALL      0.000    1.313     0  04:48           0        14.3       0.000
  
  
  **********************
  Node Surcharge Summary
  **********************
  
  No nodes were surcharged.
  
  
  *********************
  Node Flooding Summary
  *********************
  
  No nodes were flooded.
  
  
  ***********************
  Outfall Loading Summary
  ***********************
  
  -----------------------------------------------------------------------------------------------------
                         Flow       Avg       Max       Total         Total         Total         Total
                         Freq      Flow      Flow      Volume           TSS            TP           TDP
  Outfall Node           Pcnt       CMS       CMS    10^6 ltr            kg            kg            kg
  -----------------------------------------------------------------------------------------------------
  FID2689               73.74     0.776     1.313      14.306      5644.003         4.690         6.430
  -----------------------------------------------------------------------------------------------------
  System                73.74     0.776     1.313      14.306      5644.003         4.690         6.430
  
  
  ********************
  Link Flow Summary
  ********************
  
  -----------------------------------------------------------------------------
                                 Maximum  Time of Max   Maximum    Max/    Max/
                                  |Flow|   Occurrence   |Veloc|    Full    Full
  Link                 Type          CMS  days hr:min     m/sec    Flow   Depth
  -----------------------------------------------------------------------------
  FID1123              CONDUIT     0.027     0  04:10      0.80    0.50    0.52
  FID1139              CONDUIT     0.079     0  04:05      1.21    0.63    0.56
  FID1148              CONDUIT     0.102     0  04:10      0.83    0.28    0.24
  FID1149              CONDUIT     0.102     0  04:10      1.78    0.04    0.26
  FID3364              CONDUIT     0.109     0  04:10      0.63    0.10    0.35
  FID3671              CONDUIT     0.006     0  04:15      0.90    0.05    0.15
  FID3672              CONDUIT     0.021     0  04:15      1.27    0.17    0.28
  FID3762              CONDUIT     0.042     0  04:15      1.06    0.14    0.42
  FID3765              CONDUIT     0.092     0  04:15      1.70    0.28    0.50
  FID4112              CONDUIT     0.100     0  04:05      1.37    0.19    0.30
  FID4186              CONDUIT     0.007     0  04:05      0.76    0.04    0.13
  FID4187              CONDUIT     0.007     0  04:05      1.20    0.02    0.10
  FID4201              CONDUIT     0.074     0  04:05      1.01    0.84    0.61
  FID4202              CONDUIT     0.073     0  04:05      1.18    0.59    0.53
  FID4203              CONDUIT     0.000     0  00:00      0.00    0.00    0.24
  FID4299              CONDUIT     0.005     0  03:30      0.79    0.02    0.10
  FID4372              CONDUIT     0.104     0  03:30      0.77    0.02    0.31
  FID4498              CONDUIT     0.046     0  04:20      1.07    0.08    0.59
  FID4806              CONDUIT     0.224     0  04:20      4.70    0.03    0.13
  FID4807              CONDUIT     0.001     0  04:20      0.63    0.01    0.07
  FID4882              CONDUIT     0.000     0  04:10      0.01    0.00    0.52
  FID4884              CONDUIT     0.041     0  04:10      1.51    0.01    0.10
  FID4914              CONDUIT     0.009     0  04:10      0.13    0.03    0.56
  FID4915              CONDUIT     0.002     0  04:20      0.19    0.08    0.19
  FID4916              CONDUIT     0.002     0  04:21      0.25    0.07    0.14
  FID4917              CONDUIT     0.003     0  04:21      0.70    0.01    0.50
  FID5307              CONDUIT     0.008     0  03:30      0.38    0.16    0.24
  FID5308              CONDUIT     0.004     0  03:30      0.98    0.02    0.11
  FID5312              CONDUIT     0.007     0  04:06      0.50    0.05    0.14
  FID5865              CONDUIT     0.103     0  04:10      2.44    0.05    0.23
  C9                   CHANNEL     0.661     0  04:15      0.62    0.08    0.49
  C12                  CHANNEL     0.660     0  04:22      0.42    0.34    0.58
  C13                  CHANNEL     0.666     0  04:35      0.57    0.34    0.59
  C14                  CHANNEL     0.449     0  04:35      0.57    0.23    0.60
  C52                  CONDUIT     0.112     0  04:05      0.97    0.19    0.47
  C130                 CONDUIT     0.020     0  04:05      0.48    0.41    0.30
  C131                 CONDUIT     0.020     0  04:05      1.32    0.05    0.29
  C139                 CONDUIT     0.001     0  03:33      0.06    0.01    0.37
  C191                 CHANNEL     0.466     0  04:20      0.44    0.24    0.64
  C193                 CHANNEL     0.477     0  04:34      0.34    0.25    0.73
  C194                 CHANNEL     0.484     0  04:34      0.28    0.25    0.77
  C195                 CHANNEL     0.486     0  04:34      0.33    0.11    0.62
  C196                 CONDUIT     0.461     0  04:20      0.41    0.40    0.67
  C197                 CONDUIT     0.552     0  04:17      0.22    0.31    0.86
  C198                 CHANNEL     0.591     0  04:15      0.26    0.14    0.51
  C199                 CHANNEL     0.591     0  04:15      0.27    3.04    0.59
  C200                 CHANNEL     0.592     0  04:15      0.30    2.75    0.57
  C201                 CHANNEL     0.593     0  04:16      0.29    0.21    0.46
  C202                 CHANNEL     0.595     0  04:15      0.30    0.21    0.47
  C203                 CHANNEL     0.598     0  04:15      0.29    0.21    0.48
  C204                 CHANNEL     0.601     0  04:15      0.43    0.21    0.48
  C205                 CONDUIT     0.665     0  04:05      0.28    0.54    0.59
  C206                 CHANNEL     0.751     0  04:05      0.34    0.26    0.49
  C207                 CHANNEL     0.730     0  04:05      0.34    0.25    0.48
  C208                 CHANNEL     0.703     0  04:06      0.34    0.25    0.47
  C209                 CHANNEL     0.698     0  04:08      0.34    0.24    0.46
  C210                 CHANNEL     0.699     0  04:09      0.41    0.25    0.54
  C211                 CHANNEL     0.701     0  04:09      0.39    0.30    0.49
  C212                 CONDUIT     0.825     0  04:06      0.35    0.56    0.59
  C213                 CHANNEL     0.822     0  04:06      0.47    0.35    0.49
  C214                 CHANNEL     0.816     0  04:07      0.49    0.35    0.47
  C215                 CONDUIT     0.797     0  04:10      0.32    0.54    0.61
  C216                 CONDUIT     0.788     0  04:12      0.40    0.69    0.52
  C217                 CONDUIT     0.795     0  04:12      0.34    0.37    0.40
  C218                 CHANNEL     0.879     0  04:11      0.42    0.38    0.56
  C219                 CHANNEL     0.877     0  04:12      0.43    0.37    0.56
  C220                 CHANNEL     0.875     0  04:13      0.44    0.37    0.54
  C221                 CHANNEL     0.876     0  04:22      0.46    0.37    0.52
  C222                 CONDUIT     0.913     0  04:21      0.44    0.72    0.60
  C223                 CHANNEL     0.976     0  04:20      0.51    0.14    0.53
  C224                 CHANNEL     0.971     0  04:20      0.41    0.74    0.82
  C225                 CHANNEL     0.966     0  04:21      0.42    0.74    0.80
  C226                 CHANNEL     0.962     0  04:22      0.49    0.74    0.77
  C227                 CONDUIT     0.955     0  04:24      0.33    0.91    0.83
  C228                 CHANNEL     0.955     0  04:25      0.54    0.46    0.66
  C229                 CONDUIT     0.977     0  04:27      0.26    0.20    0.48
  C230                 CHANNEL     0.977     0  04:27      0.53    0.47    0.68
  C231                 CHANNEL     0.977     0  04:28      0.53    0.47    0.68
  C232                 CHANNEL     0.975     0  04:30      0.53    0.47    0.68
  C233                 CHANNEL     0.974     0  04:32      0.54    0.47    0.67
  C234                 CONDUIT     0.977     0  04:35      0.40    0.47    0.52
  C235                 CHANNEL     0.979     0  04:35      0.55    0.47    0.67
  C236                 CHANNEL     1.044     0  04:31      0.55    0.59    0.75
  C237                 CHANNEL     1.043     0  04:32      0.54    0.59    0.75
  C238                 CHANNEL     1.062     0  04:32      0.56    0.60    0.75
  C239                 CHANNEL     1.060     0  04:33      0.56    0.60    0.74
  C240                 CHANNEL     1.059     0  04:33      0.57    0.58    0.74
  C241                 CHANNEL     1.060     0  04:33      0.71    0.60    0.74
  C242                 CONDUIT     1.062     0  04:33      0.44    0.44    0.60
  C243                 CHANNEL     1.061     0  04:35      0.58    0.60    0.72
  C244                 CHANNEL     1.065     0  04:37      0.81    0.21    0.43
  C245                 CONDUIT     1.067     0  04:38      0.47    0.35    0.57
  C246                 CHANNEL     1.187     0  04:32      0.48    0.45    0.65
  C247                 CHANNEL     1.184     0  04:35      0.49    0.45    0.64
  C248                 CHANNEL     1.182     0  04:37      0.52    0.45    0.61
  C249                 CHANNEL     1.182     0  04:38      2.57    0.56    0.62
  C250                 CONDUIT     1.183     0  04:38      0.58    0.51    0.50
  C251                 CONDUIT     1.183     0  04:39      0.58    0.51    0.50
  C252                 CHANNEL     1.221     0  04:35      4.69    0.58    0.59
  C253                 CHANNEL     1.220     0  04:36      0.81    0.33    0.58
  C254                 CHANNEL     1.218     0  04:37      2.27    0.33    0.62
  C255                 CHANNEL     1.217     0  04:39      0.43    0.33    0.67
  C256                 CHANNEL     1.227     0  04:39      0.42    0.33    0.72
  C257                 CHANNEL     1.225     0  04:39      2.19    0.33    0.75
  C258                 CONDUIT     1.225     0  04:40      0.48    0.53    0.63
  C259                 CHANNEL     1.225     0  04:41      0.43    0.33    0.80
  C260                 CHANNEL     1.224     0  04:42      0.41    0.33    0.84
  C261                 CHANNEL     1.233     0  04:41      1.45    0.33    0.86
  C262                 CHANNEL     1.232     0  04:41      0.52    0.33    0.92
  C263                 CHANNEL     1.232     0  04:42      0.40    0.34    0.63
  C264                 CONDUIT     1.232     0  04:43      0.43    0.75    0.68
  C265                 CHANNEL     1.262     0  04:41      0.49    0.34    0.56
  C266                 CHANNEL     1.261     0  04:41      0.50    0.29    0.61
  C267                 CHANNEL     1.261     0  04:41      0.51    0.29    0.61
  C268                 CHANNEL     1.261     0  04:42      0.50    0.29    0.61
  C269                 CHANNEL     1.265     0  04:42      0.53    0.29    0.61
  C270                 CHANNEL     1.265     0  04:43      0.51    0.29    0.61
  C271                 CHANNEL     1.265     0  04:43      0.51    0.29    0.61
  C272                 CHANNEL     1.265     0  04:44      0.51    0.29    0.61
  C273                 CHANNEL     1.287     0  04:41      0.53    0.30    0.60
  C274                 CHANNEL     1.286     0  04:42      0.54    0.30    0.59
  C275                 CHANNEL     1.286     0  04:43      0.56    0.30    0.58
  C276                 CHANNEL     1.285     0  04:44      0.58    0.30    0.57
  C277                 CHANNEL     1.285     0  04:44      0.61    0.30    0.55
  C278                 CHANNEL     1.285     0  04:45      0.65    0.30    0.53
  C279                 CHANNEL     1.285     0  04:45      0.76    0.30    0.48
  C280                 CHANNEL     1.285     0  04:46      0.59    0.52    0.65
  C281                 CHANNEL     1.294     0  04:44      0.60    0.52    0.65
  C282                 CHANNEL     1.294     0  04:44      0.60    0.52    0.65
  C283                 CHANNEL     1.296     0  04:44      0.61    0.52    0.64
  C284                 CHANNEL     1.296     0  04:44      0.62    0.52    0.63
  C285                 CHANNEL     1.296     0  04:44      0.64    0.52    0.62
  C286                 CHANNEL     1.296     0  04:45      0.74    0.37    0.61
  C287                 CHANNEL     1.295     0  04:45      0.74    0.37    0.61
  C288                 CHANNEL     1.295     0  04:46      0.74    0.37    0.61
  C289                 CHANNEL     1.295     0  04:46      0.74    0.37    0.61
  C290                 CHANNEL     1.295     0  04:47      0.74    0.37    0.61
  C291                 CHANNEL     1.296     0  04:47      0.74    0.37    0.61
  C292                 CHANNEL     1.314     0  04:45      0.75    0.38    0.61
  C293                 CHANNEL     1.314     0  04:45      0.75    0.38    0.61
  C294                 CHANNEL     1.314     0  04:45      0.75    0.38    0.61
  C295                 CHANNEL     1.313     0  04:46      0.75    0.38    0.61
  C296                 CHANNEL     1.313     0  04:46      0.75    0.38    0.61
  C297                 CHANNEL     1.313     0  04:46      0.75    0.38    0.61
  C298                 CHANNEL     1.313     0  04:47      0.74    0.38    0.61
  C299                 CHANNEL     1.313     0  04:47      0.74    0.38    0.62
  C300                 CHANNEL     1.313     0  04:47      0.74    0.38    0.62
  C301                 CHANNEL     1.313     0  04:48      1.16    0.28    0.39
  C302                 CHANNEL     0.660     0  04:15      0.53    0.12    0.44
  C303                 CHANNEL     0.469     0  04:20      0.39    0.24    0.67
  C353                 CONDUIT     0.042     0  04:15      1.47    0.02    0.09
  
  
  ***************************
  Flow Classification Summary
  ***************************
  
  -------------------------------------------------------------------------------------
                      Adjusted    ---------- Fraction of Time in Flow Class ---------- 
                       /Actual         Up    Down  Sub   Sup   Up    Down  Norm  Inlet 
  Conduit               Length    Dry  Dry   Dry   Crit  Crit  Crit  Crit  Ltd   Ctrl  
  -------------------------------------------------------------------------------------
  FID1123                 1.00   0.15  0.00  0.00  0.29  0.00  0.00  0.56  0.20  0.00
  FID1139                 1.00   0.15  0.00  0.00  0.12  0.00  0.00  0.74  0.08  0.00
  FID1148                 1.00   0.13  0.00  0.00  0.49  0.00  0.00  0.39  0.00  0.00
  FID1149                 1.00   0.13  0.00  0.00  0.70  0.04  0.00  0.12  0.59  0.00
  FID3364                 1.00   0.13  0.00  0.00  0.84  0.00  0.00  0.03  0.68  0.00
  FID3671                 1.00   0.17  0.00  0.00  0.00  0.00  0.00  0.83  0.00  0.00
  FID3672                 1.00   0.16  0.00  0.00  0.00  0.00  0.00  0.84  0.00  0.00
  FID3762                 1.00   0.01  0.14  0.00  0.82  0.03  0.00  0.00  0.68  0.00
  FID3765                 1.00   0.01  0.14  0.00  0.69  0.15  0.00  0.00  0.68  0.00
  FID4112                 1.00   0.15  0.00  0.00  0.00  0.00  0.00  0.85  0.00  0.00
  FID4186                 1.00   0.20  0.00  0.00  0.36  0.15  0.00  0.29  0.00  0.00
  FID4187                 1.00   0.21  0.00  0.00  0.00  0.00  0.00  0.79  0.00  0.00
  FID4201                 1.00   0.15  0.00  0.00  0.81  0.00  0.00  0.04  0.41  0.00
  FID4202                 1.00   0.15  0.00  0.00  0.00  0.00  0.00  0.85  0.00  0.00
  FID4203                 1.00   0.16  0.84  0.00  0.00  0.00  0.00  0.00  0.00  0.00
  FID4299                 1.00   0.21  0.00  0.00  0.00  0.00  0.00  0.79  0.00  0.00
  FID4372                 1.00   0.08  0.08  0.00  0.84  0.00  0.00  0.00  0.68  0.00
  FID4498                 1.00   0.13  0.00  0.00  0.82  0.00  0.00  0.05  0.60  0.00
  FID4806                 1.00   0.16  0.00  0.00  0.00  0.00  0.00  0.84  0.00  0.00
  FID4807                 1.00   0.22  0.00  0.00  0.00  0.00  0.00  0.78  0.00  0.00
  FID4882                 1.00   0.22  0.49  0.00  0.29  0.00  0.00  0.00  0.58  0.00
  FID4884                 1.00   0.13  0.00  0.00  0.17  0.03  0.00  0.67  0.14  0.00
  FID4914                 1.00   0.13  0.02  0.00  0.85  0.00  0.00  0.00  0.68  0.00
  FID4915                 1.00   0.21  0.00  0.00  0.77  0.00  0.00  0.02  0.49  0.00
  FID4916                 1.00   0.22  0.00  0.00  0.60  0.00  0.00  0.18  0.04  0.00
  FID4917                 1.00   0.23  0.00  0.00  0.51  0.01  0.00  0.25  0.41  0.00
  FID5307                 1.00   0.18  0.00  0.00  0.77  0.00  0.00  0.05  0.48  0.00
  FID5308                 1.00   0.21  0.00  0.00  0.00  0.00  0.00  0.79  0.00  0.00
  FID5312                 1.00   0.21  0.00  0.00  0.00  0.00  0.00  0.79  0.00  0.00
  FID5865                 1.00   0.12  0.00  0.00  0.28  0.07  0.00  0.53  0.25  0.00
  C9                      1.00   0.00  0.00  0.00  1.00  0.00  0.00  0.00  0.00  0.00
  C12                     1.00   0.00  0.00  0.00  1.00  0.00  0.00  0.00  0.00  0.00
  C13                     1.00   0.00  0.00  0.00  1.00  0.00  0.00  0.00  0.00  0.00
  C14                     1.00   0.00  0.00  0.00  1.00  0.00  0.00  0.00  0.00  0.00
  C52                     1.00   0.04  0.12  0.00  0.84  0.00  0.00  0.00  0.68  0.00
  C130                    1.00   0.16  0.00  0.00  0.55  0.00  0.00  0.30  0.00  0.00
  C131                    1.00   0.21  0.00  0.00  0.41  0.01  0.00  0.37  0.32  0.00
  C139                    1.00   0.13  0.48  0.00  0.38  0.00  0.01  0.00  0.49  0.00
  C191                    1.00   0.00  0.00  0.00  1.00  0.00  0.00  0.00  0.00  0.00
  C193                    1.00   0.00  0.00  0.00  1.00  0.00  0.00  0.00  0.00  0.00
  C194                    1.00   0.01  0.00  0.00  0.99  0.00  0.00  0.00  0.00  0.00
  C195                    1.00   0.01  0.00  0.00  0.99  0.00  0.00  0.00  0.00  0.00
  C196                    1.00   0.00  0.00  0.00  1.00  0.00  0.00  0.00  0.00  0.00
  C197                    1.00   0.01  0.00  0.00  0.99  0.00  0.00  0.00  0.00  0.00
  C198                    1.00   0.01  0.00  0.00  0.99  0.00  0.00  0.00  0.00  0.00
  C199                    1.00   0.01  0.00  0.00  0.99  0.00  0.00  0.00  0.00  0.00
  C200                    1.00   0.01  0.00  0.00  0.99  0.00  0.00  0.00  0.00  0.00
  C201                    1.00   0.01  0.00  0.00  0.99  0.00  0.00  0.00  0.00  0.00
  C202                    1.00   0.01  0.00  0.00  0.99  0.00  0.00  0.00  0.00  0.00
  C203                    1.00   0.01  0.00  0.00  0.99  0.00  0.00  0.00  0.00  0.00
  C204                    1.00   0.02  0.00  0.00  0.98  0.00  0.00  0.00  0.00  0.00
  C205                    1.00   0.02  0.00  0.00  0.98  0.00  0.00  0.00  0.00  0.00
  C206                    1.00   0.02  0.00  0.00  0.98  0.00  0.00  0.00  0.00  0.00
  C207                    1.00   0.02  0.00  0.00  0.98  0.00  0.00  0.00  0.00  0.00
  C208                    1.00   0.02  0.00  0.00  0.98  0.00  0.00  0.00  0.00  0.00
  C209                    1.00   0.02  0.00  0.00  0.98  0.00  0.00  0.00  0.00  0.00
  C210                    1.00   0.02  0.00  0.00  0.98  0.00  0.00  0.00  0.00  0.00
  C211                    1.00   0.03  0.00  0.00  0.97  0.00  0.00  0.00  0.00  0.00
  C212                    1.00   0.03  0.00  0.00  0.97  0.00  0.00  0.00  0.00  0.00
  C213                    1.00   0.03  0.00  0.00  0.97  0.00  0.00  0.00  0.00  0.00
  C214                    1.00   0.03  0.00  0.00  0.97  0.00  0.00  0.00  0.00  0.00
  C215                    1.00   0.03  0.00  0.00  0.97  0.00  0.00  0.00  0.66  0.00
  C216                    1.00   0.03  0.00  0.00  0.97  0.00  0.00  0.00  0.00  0.00
  C217                    1.00   0.03  0.00  0.00  0.97  0.00  0.00  0.00  0.00  0.00
  C218                    1.00   0.03  0.00  0.00  0.97  0.00  0.00  0.00  0.00  0.00
  C219                    1.00   0.04  0.00  0.00  0.96  0.00  0.00  0.00  0.00  0.00
  C220                    1.00   0.04  0.00  0.00  0.96  0.00  0.00  0.00  0.00  0.00
  C221                    1.00   0.04  0.00  0.00  0.96  0.00  0.00  0.00  0.00  0.00
  C222                    1.00   0.04  0.00  0.00  0.96  0.00  0.00  0.00  0.00  0.00
  C223                    1.00   0.05  0.00  0.00  0.95  0.00  0.00  0.00  0.01  0.00
  C224                    1.00   0.05  0.00  0.00  0.95  0.00  0.00  0.00  0.00  0.00
  C225                    1.00   0.05  0.00  0.00  0.95  0.00  0.00  0.00  0.00  0.00
  C226                    1.00   0.05  0.00  0.00  0.95  0.00  0.00  0.00  0.00  0.00
  C227                    1.00   0.05  0.00  0.00  0.95  0.00  0.00  0.00  0.00  0.00
  C228                    1.00   0.05  0.00  0.00  0.95  0.00  0.00  0.00  0.00  0.00
  C229                    1.00   0.06  0.00  0.00  0.94  0.00  0.00  0.00  0.00  0.00
  C230                    1.00   0.06  0.00  0.00  0.94  0.00  0.00  0.00  0.00  0.00
  C231                    1.00   0.06  0.00  0.00  0.94  0.00  0.00  0.00  0.00  0.00
  C232                    1.00   0.07  0.00  0.00  0.93  0.00  0.00  0.00  0.00  0.00
  C233                    1.00   0.07  0.00  0.00  0.93  0.00  0.00  0.00  0.00  0.00
  C234                    1.00   0.07  0.00  0.00  0.93  0.00  0.00  0.00  0.00  0.00
  C235                    1.00   0.07  0.00  0.00  0.93  0.00  0.00  0.00  0.00  0.00
  C236                    1.00   0.07  0.00  0.00  0.93  0.00  0.00  0.00  0.00  0.00
  C237                    1.00   0.08  0.00  0.00  0.92  0.00  0.00  0.00  0.00  0.00
  C238                    1.00   0.08  0.00  0.00  0.92  0.00  0.00  0.00  0.00  0.00
  C239                    1.00   0.08  0.00  0.00  0.92  0.00  0.00  0.00  0.00  0.00
  C240                    1.00   0.08  0.00  0.00  0.92  0.00  0.00  0.00  0.00  0.00
  C241                    1.00   0.08  0.00  0.00  0.92  0.00  0.00  0.00  0.00  0.00
  C242                    1.00   0.08  0.00  0.00  0.92  0.00  0.00  0.00  0.00  0.00
  C243                    1.00   0.08  0.00  0.00  0.92  0.00  0.00  0.00  0.00  0.00
  C244                    1.00   0.09  0.00  0.00  0.91  0.00  0.00  0.00  0.00  0.00
  C245                    1.00   0.09  0.00  0.00  0.91  0.00  0.00  0.00  0.00  0.00
  C246                    1.00   0.10  0.00  0.00  0.90  0.00  0.00  0.00  0.19  0.00
  C247                    1.00   0.11  0.00  0.00  0.89  0.00  0.00  0.00  0.00  0.00
  C248                    1.00   0.11  0.00  0.00  0.89  0.00  0.00  0.00  0.00  0.00
  C249                    1.00   0.12  0.01  0.00  0.87  0.00  0.00  0.00  0.01  0.00
  C250                    1.00   0.12  0.00  0.00  0.88  0.00  0.00  0.00  0.00  0.00
  C251                    1.00   0.12  0.00  0.00  0.88  0.00  0.00  0.00  0.02  0.00
  C252                    1.00   0.13  0.00  0.00  0.87  0.01  0.00  0.00  0.00  0.00
  C253                    1.00   0.13  0.00  0.00  0.87  0.00  0.00  0.00  0.00  0.00
  C254                    1.00   0.16  0.00  0.00  0.84  0.00  0.00  0.00  0.00  0.00
  C255                    1.00   0.13  0.03  0.00  0.84  0.00  0.00  0.00  0.01  0.00
  C256                    1.00   0.12  0.01  0.00  0.87  0.00  0.00  0.00  0.00  0.00
  C257                    1.00   0.12  0.00  0.00  0.87  0.01  0.00  0.00  0.00  0.00
  C258                    1.00   0.12  0.01  0.00  0.87  0.00  0.00  0.00  0.01  0.00
  C259                    1.00   0.12  0.00  0.00  0.88  0.00  0.00  0.00  0.03  0.00
  C260                    1.00   0.13  0.01  0.00  0.86  0.00  0.00  0.00  0.00  0.00
  C261                    1.00   0.13  0.00  0.00  0.86  0.01  0.00  0.00  0.00  0.00
  C262                    1.00   0.13  0.00  0.00  0.86  0.00  0.00  0.00  0.00  0.00
  C263                    1.00   0.13  0.00  0.00  0.87  0.00  0.00  0.00  0.00  0.00
  C264                    1.00   0.12  0.00  0.00  0.88  0.00  0.00  0.00  0.01  0.00
  C265                    1.00   0.12  0.01  0.00  0.87  0.00  0.00  0.00  0.00  0.00
  C266                    1.00   0.13  0.00  0.00  0.87  0.00  0.00  0.00  0.00  0.00
  C267                    1.00   0.19  0.00  0.00  0.81  0.00  0.00  0.00  0.00  0.00
  C268                    1.00   0.15  0.05  0.00  0.80  0.00  0.00  0.00  0.00  0.00
  C269                    1.00   0.15  0.00  0.00  0.85  0.00  0.00  0.00  0.00  0.00
  C270                    1.00   0.13  0.05  0.00  0.82  0.00  0.00  0.00  0.03  0.00
  C271                    1.00   0.13  0.00  0.00  0.87  0.00  0.00  0.00  0.02  0.00
  C272                    1.00   0.13  0.01  0.00  0.86  0.00  0.00  0.00  0.00  0.00
  C273                    1.00   0.13  0.00  0.00  0.87  0.00  0.00  0.00  0.02  0.00
  C274                    1.00   0.14  0.00  0.00  0.86  0.00  0.00  0.00  0.00  0.00
  C275                    1.00   0.16  0.00  0.00  0.84  0.00  0.00  0.00  0.00  0.00
  C276                    1.00   0.19  0.00  0.00  0.81  0.00  0.00  0.00  0.00  0.00
  C277                    1.00   0.21  0.00  0.00  0.79  0.00  0.00  0.00  0.00  0.00
  C278                    1.00   0.22  0.00  0.00  0.78  0.00  0.00  0.00  0.00  0.00
  C279                    1.00   0.21  0.02  0.00  0.77  0.00  0.00  0.00  0.00  0.00
  C280                    1.00   0.15  0.06  0.00  0.79  0.00  0.00  0.00  0.00  0.00
  C281                    1.00   0.15  0.00  0.00  0.85  0.00  0.00  0.00  0.04  0.00
  C282                    1.00   0.15  0.00  0.00  0.85  0.00  0.00  0.00  0.03  0.00
  C283                    1.00   0.16  0.00  0.00  0.84  0.00  0.00  0.00  0.01  0.00
  C284                    1.00   0.17  0.00  0.00  0.83  0.00  0.00  0.00  0.00  0.00
  C285                    1.00   0.19  0.00  0.00  0.81  0.00  0.00  0.00  0.00  0.00
  C286                    1.00   0.21  0.00  0.00  0.79  0.00  0.00  0.00  0.00  0.00
  C287                    1.00   0.14  0.08  0.00  0.77  0.00  0.00  0.00  0.00  0.00
  C288                    1.00   0.14  0.00  0.00  0.86  0.00  0.00  0.00  0.00  0.00
  C289                    1.00   0.24  0.00  0.00  0.76  0.00  0.00  0.00  0.00  0.00
  C290                    1.00   0.14  0.10  0.00  0.76  0.00  0.00  0.00  0.00  0.00
  C291                    1.00   0.14  0.00  0.00  0.86  0.00  0.00  0.00  0.07  0.00
  C292                    1.00   0.16  0.00  0.00  0.84  0.00  0.00  0.00  0.02  0.00
  C293                    1.00   0.17  0.00  0.00  0.83  0.00  0.00  0.00  0.01  0.00
  C294                    1.00   0.18  0.00  0.00  0.82  0.00  0.00  0.00  0.01  0.00
  C295                    1.00   0.20  0.00  0.00  0.80  0.00  0.00  0.00  0.01  0.00
  C296                    1.00   0.17  0.05  0.00  0.78  0.00  0.00  0.00  0.00  0.00
  C297                    1.00   0.17  0.00  0.00  0.83  0.00  0.00  0.00  0.00  0.00
  C298                    1.00   0.24  0.00  0.00  0.76  0.00  0.00  0.00  0.00  0.00
  C299                    1.00   0.25  0.00  0.00  0.75  0.00  0.00  0.00  0.00  0.00
  C300                    1.00   0.26  0.00  0.00  0.74  0.00  0.00  0.00  0.00  0.00
  C301                    1.00   0.26  0.00  0.00  0.74  0.00  0.00  0.00  0.00  0.00
  C302                    1.00   0.00  0.00  0.00  1.00  0.00  0.00  0.00  0.00  0.00
  C303                    1.00   0.00  0.00  0.00  1.00  0.00  0.00  0.00  0.00  0.00
  C353                    1.00   0.16  0.00  0.00  0.00  0.00  0.00  0.84  0.00  0.00
  
  
  *************************
  Conduit Surcharge Summary
  *************************
  
  ----------------------------------------------------------------------------
                                                           Hours        Hours 
                         --------- Hours Full --------   Above Full   Capacity
  Conduit                Both Ends  Upstream  Dnstream   Normal Flow   Limited
  ----------------------------------------------------------------------------
  FID4498                     0.01      0.01      1.39      0.01         0.01
  FID4882                     0.01      0.01      2.08      0.01         0.01
  FID4914                     0.01      0.01      2.39      0.01         0.01
  C199                        0.01      0.01      0.01      8.52         0.01
  C200                        0.01      0.01      0.01      8.46         0.01
  
  
  ***************************
  Link Pollutant Load Summary
  ***************************
  
  --------------------------------------------------------------
                                 TSS            TP           TDP
  Link                            kg            kg            kg
  --------------------------------------------------------------
  FID1123                      8.141         0.004         0.013
  FID1139                    138.651         0.041         0.095
  FID1148                    263.769         0.102         0.198
  FID1149                    261.428         0.102         0.198
  FID3364                    305.320         0.129         0.235
  FID3671                      6.585         0.012         0.015
  FID3672                     96.955         0.036         0.060
  FID3762                    192.835         0.132         0.186
  FID3765                    301.324         0.189         0.277
  FID4112                    136.774         0.059         0.097
  FID4186                     14.347         0.020         0.027
  FID4187                     13.877         0.020         0.027
  FID4201                     99.909         0.044         0.071
  FID4202                     94.570         0.043         0.070
  FID4203                      0.000         0.000         0.000
  FID4299                     14.976         0.009         0.012
  FID4372                    590.748         0.547         0.145
  FID4498                    109.990         0.036         0.046
  FID4806                    260.191         1.352         1.218
  FID4807                      0.000         0.001         0.001
  FID4882                      0.121         0.000         0.000
  FID4884                     58.089         0.019         0.059
  FID4914                     42.713         0.033         0.041
  FID4915                      6.912         0.002         0.004
  FID4916                      0.471         0.001         0.001
  FID4917                      0.158         0.000         0.001
  FID5307                     33.369         0.011         0.023
  FID5308                     19.702         0.009         0.013
  FID5312                     27.302         0.011         0.022
  FID5865                    387.702         0.225         1.227
  C9                         169.577         1.081         1.333
  C12                        168.063         1.064         1.312
  C13                        225.219         1.072         1.333
  C14                        147.893         0.705         0.881
  C52                        418.186         0.204         0.326
  C130                        40.489         0.012         0.032
  C131                        38.567         0.012         0.032
  C139                         1.626         0.001         0.001
  C191                       251.045         0.746         0.946
  C193                       250.640         0.726         0.920
  C194                       248.164         0.721         0.917
  C195                       247.724         0.718         0.914
  C196                       244.769         0.738         0.936
  C197                       549.008         0.904         1.187
  C198                       741.554         1.034         1.370
  C199                       742.692         1.031         1.366
  C200                       741.600         1.028         1.362
  C201                       746.430         1.025         1.357
  C202                       756.982         1.024         1.359
  C203                       756.991         1.021         1.355
  C204                       754.154         1.018         1.352
  C205                      1018.807         1.104         1.517
  C206                      1154.741         1.160         1.611
  C207                      1159.051         1.157         1.607
  C208                      1169.323         1.169         1.617
  C209                      1162.863         1.163         1.611
  C210                      1163.345         1.161         1.609
  C211                      1162.270         1.159         1.607
  C212                      1520.922         1.346         1.897
  C213                      1532.475         1.348         1.901
  C214                      1533.912         1.347         1.900
  C215                      1602.341         1.397         1.945
  C216                      1558.785         1.369         1.921
  C217                      1654.546         1.411         1.989
  C218                      2070.554         1.612         2.310
  C219                      2075.899         1.611         2.308
  C220                      2079.056         1.607         2.303
  C221                      2101.269         1.637         2.326
  C222                      2285.644         1.713         2.456
  C223                      2574.431         1.807         2.635
  C224                      2598.343         1.811         2.637
  C225                      2600.231         1.809         2.637
  C226                      2599.999         1.805         2.631
  C227                      2682.199         1.840         2.664
  C228                      2642.680         1.845         2.673
  C229                      2894.088         2.010         2.910
  C230                      2906.515         2.016         2.920
  C231                      2933.402         2.022         2.923
  C232                      2919.115         2.010         2.910
  C233                      2968.993         2.033         2.919
  C234                      2934.909         2.015         2.908
  C235                      2971.156         2.027         2.927
  C236                      3560.352         2.572         3.071
  C237                      3576.326         2.577         3.069
  C238                      3933.830         2.746         3.310
  C239                      3922.228         2.737         3.304
  C240                      3913.669         2.733         3.301
  C241                      3932.932         2.741         3.314
  C242                      3966.311         2.753         3.335
  C243                      4045.284         2.798         3.360
  C244                      4006.908         2.792         3.382
  C245                      4009.271         2.792         3.380
  C246                      4339.412         4.223         4.623
  C247                      4328.806         4.177         4.618
  C248                      4345.418         4.195         4.622
  C249                      4322.902         4.161         4.601
  C250                      4340.890         4.164         4.609
  C251                      4343.322         4.164         4.609
  C252                      4642.440         4.288         4.840
  C253                      4654.888         4.302         4.844
  C254                      4663.928         4.310         4.844
  C255                      4661.720         4.302         4.837
  C256                      4763.796         4.326         4.873
  C257                      4771.288         4.324         4.877
  C258                      4772.012         4.323         4.875
  C259                      4787.714         4.336         4.880
  C260                      4776.455         4.320         4.869
  C261                      4833.144         4.340         4.926
  C262                      4851.118         4.354         4.928
  C263                      4827.612         4.337         4.922
  C264                      4824.854         4.336         4.977
  C265                      5203.736         4.548         6.107
  C266                      5214.034         4.555         6.117
  C267                      5211.317         4.550         6.107
  C268                      5224.776         4.555         6.118
  C269                      5207.821         4.544         6.099
  C270                      5222.214         4.550         6.113
  C271                      5216.161         4.543         6.097
  C272                      5219.345         4.542         6.094
  C273                      5494.296         4.650         6.308
  C274                      5480.941         4.645         6.299
  C275                      5465.589         4.641         6.291
  C276                      5458.507         4.638         6.286
  C277                      5450.911         4.635         6.279
  C278                      5449.860         4.634         6.276
  C279                      5454.101         4.633         6.277
  C280                      5451.678         4.630         6.270
  C281                      5578.111         4.670         6.361
  C282                      5584.530         4.671         6.364
  C283                      5619.796         4.682         6.393
  C284                      5622.549         4.681         6.393
  C285                      5622.183         4.681         6.394
  C286                      5620.541         4.680         6.394
  C287                      5620.685         4.679         6.392
  C288                      5614.719         4.677         6.387
  C289                      5613.484         4.676         6.384
  C290                      5615.450         4.676         6.383
  C291                      5597.344         4.672         6.374
  C292                      5692.641         4.703         6.455
  C293                      5684.055         4.701         6.451
  C294                      5687.090         4.700         6.451
  C295                      5666.199         4.697         6.442
  C296                      5667.378         4.696         6.443
  C297                      5673.508         4.697         6.446
  C298                      5670.880         4.696         6.445
  C299                      5656.058         4.693         6.437
  C300                      5670.771         4.695         6.442
  C301                      5644.003         4.690         6.430
  C302                       168.989         1.076         1.327
  C303                       251.116         0.738         0.936
  C353                        73.403         0.028         0.072
  

  Analysis begun on:  Tue Oct 10 20:17:40 2017
  Analysis ended on:  Tue Oct 10 20:18:23 2017
  Total elapsed time: 00:00:43