
  EPA STORM WATER MANAGEMENT MODEL - VERSION 5.1 (Build 5.1.010)
  --------------------------------------------------------------

  WARNING 04: minimum elevation drop used for Conduit C199
  WARNING 04: minimum elevation drop used for Conduit C200
  WARNING 02: maximum depth increased for Node FID1955
  WARNING 02: maximum depth increased for Node FID1960
  WARNING 02: maximum depth increased for Node FID1965
  WARNING 02: maximum depth increased for Node FID1968
  WARNING 02: maximum depth increased for Node FID2244
  WARNING 02: maximum depth increased for Node FID2442
  WARNING 02: maximum depth increased for Node FID2446
  WARNING 02: maximum depth increased for Node FID5504
  WARNING 02: maximum depth increased for Node FID5527
  WARNING 02: maximum depth increased for Node AFID6926
  WARNING 02: maximum depth increased for Node AFID7376
  
  *********************************************************
  NOTE: The summary statistics displayed in this report are
  based on results found at every computational time step,  
  not just on results from each reporting time step.
  *********************************************************
  
  ****************
  Analysis Options
  ****************
  Flow Units ............... CMS
  Process Models:
    Rainfall/Runoff ........ YES
    RDII ................... NO
    Snowmelt ............... NO
    Groundwater ............ NO
    Flow Routing ........... YES
    Ponding Allowed ........ YES
    Water Quality .......... YES
  Infiltration Method ...... GREEN_AMPT
  Flow Routing Method ...... DYNWAVE
  Starting Date ............ MAR-16-2016 15:00:00
  Ending Date .............. MAR-17-2016 00:00:00
  Antecedent Dry Days ...... 0.0
  Report Time Step ......... 00:01:00
  Wet Time Step ............ 00:01:00
  Dry Time Step ............ 01:00:00
  Routing Time Step ........ 5.00 sec
  Variable Time Step ....... YES
  Maximum Trials ........... 8
  Number of Threads ........ 3
  Head Tolerance ........... 0.001500 m
  
  
  **************************        Volume         Depth
  Runoff Quantity Continuity     hectare-m            mm
  **************************     ---------       -------
  Total Precipitation ......         0.186         0.482
  Evaporation Loss .........         0.000         0.000
  Infiltration Loss ........         0.092         0.239
  Surface Runoff ...........         0.004         0.010
  Final Storage ............         0.090         0.233
  Continuity Error (%) .....        -0.014
  
  
  **************************           TSS            TP           TDP
  Runoff Quality Continuity             kg            kg            kg
  **************************    ----------    ----------    ----------
  Initial Buildup ..........         0.000         0.000         0.000
  Surface Buildup ..........     25684.060         8.980        22.438
  Wet Deposition ...........         0.000         0.000         0.000
  Sweeping Removal .........         0.000         0.000         0.000
  Infiltration Loss ........         0.000         0.000         0.000
  BMP Removal ..............         0.308         0.000         0.000
  Surface Runoff ...........      3080.077         0.247         0.035
  Remaining Buildup ........     22603.675         8.732        22.403
  Continuity Error (%) .....         0.000         0.000         0.000
  
  
  **************************        Volume        Volume
  Flow Routing Continuity        hectare-m      10^6 ltr
  **************************     ---------     ---------
  Dry Weather Inflow .......         0.000         0.000
  Wet Weather Inflow .......         0.004         0.037
  Groundwater Inflow .......         0.000         0.000
  RDII Inflow ..............         0.000         0.000
  External Inflow ..........         0.812         8.117
  External Outflow .........         0.496         4.961
  Flooding Loss ............         0.000         0.000
  Evaporation Loss .........         0.000         0.000
  Exfiltration Loss ........         0.000         0.000
  Initial Stored Volume ....         0.000         0.000
  Final Stored Volume ......         0.325         3.253
  Continuity Error (%) .....        -0.741
  
  
  **************************           TSS            TP           TDP
  Quality Routing Continuity            kg            kg            kg
  **************************    ----------    ----------    ----------
  Dry Weather Inflow .......         0.000         0.000         0.000
  Wet Weather Inflow .......      1312.053         0.150         0.034
  Groundwater Inflow .......         0.000         0.000         0.000
  RDII Inflow ..............         0.000         0.000         0.000
  External Inflow ..........        82.975         0.380         0.102
  External Outflow .........       158.628         0.307         0.081
  Flooding Loss ............         0.000         0.000         0.000
  Exfiltration Loss ........         0.000         0.000         0.000
  Mass Reacted .............         0.000         0.000         0.000
  Initial Stored Mass ......         0.000         0.000         0.000
  Final Stored Mass ........      1167.698         0.216         0.055
  Continuity Error (%) .....         4.925         1.290         0.348
  
  
  *************************
  Highest Continuity Errors
  *************************
  Node FID5785 (77.66%)
  Node FID2241 (70.22%)
  Node AFID7792 (7.66%)
  Node J81 (2.18%)
  Node J72 (1.95%)
  
  
  ***************************
  Time-Step Critical Elements
  ***************************
  Link C241 (91.29%)
  Link C14 (7.84%)
  
  
  ********************************
  Highest Flow Instability Indexes
  ********************************
  All links are stable.
  
  
  *************************
  Routing Time Step Summary
  *************************
  Minimum Time Step           :     0.75 sec
  Average Time Step           :     1.24 sec
  Maximum Time Step           :     5.00 sec
  Percent in Steady State     :     0.00
  Average Iterations per Step :     2.00
  Percent Not Converging      :     0.00
  
  
  ***************************
  Subcatchment Runoff Summary
  ***************************
  
  --------------------------------------------------------------------------------------------------------
                            Total      Total      Total      Total      Total       Total     Peak  Runoff
                           Precip      Runon       Evap      Infil     Runoff      Runoff   Runoff   Coeff
  Subcatchment                 mm         mm         mm         mm         mm    10^6 ltr      CMS
  --------------------------------------------------------------------------------------------------------
  S0                         0.00       0.00       0.00       0.00       0.00        0.00     0.00   0.000
  S1                         0.00       0.00       0.00       0.00       0.00        0.00     0.00   0.000
  S2                         0.00       0.00       0.00       0.00       0.00        0.00     0.00   0.000
  S3                         0.00       0.00       0.00       0.00       0.00        0.00     0.00   0.000
  S4                         0.00       0.00       0.00       0.00       0.00        0.00     0.00   0.000
  S6                         0.00       0.00       0.00       0.00       0.00        0.00     0.00   0.000
  S7                         0.00       0.00       0.00       0.00       0.00        0.00     0.00   0.000
  S8                         0.00       0.00       0.00       0.00       0.00        0.00     0.00   0.000
  S9                         0.00       0.00       0.00       0.00       0.00        0.00     0.00   0.000
  S10                        0.00       0.00       0.00       0.00       0.00        0.00     0.00   0.000
  S11                        0.00       0.00       0.00       0.00       0.00        0.00     0.00   0.000
  S12                        0.00       0.00       0.00       0.00       0.00        0.00     0.00   0.000
  S13                        0.00       0.00       0.00       0.00       0.00        0.00     0.00   0.000
  S14                        0.00       0.00       0.00       0.00       0.00        0.00     0.00   0.000
  S16                        0.00       0.00       0.00       0.00       0.00        0.00     0.00   0.000
  S17                        0.00       0.00       0.00       0.00       0.00        0.00     0.00   0.000
  S18                        0.00       0.00       0.00       0.00       0.00        0.00     0.00   0.000
  S19                        0.00       0.00       0.00       0.00       0.00        0.00     0.00   0.000
  S20                        0.00       0.00       0.00       0.00       0.00        0.00     0.00   0.000
  S21                        1.02       0.00       0.00       0.46       0.03        0.02     0.01   0.028
  S22                        1.02       0.00       0.00       0.44       0.03        0.00     0.00   0.027
  S23                        1.02       0.00       0.00       0.44       0.03        0.00     0.00   0.026
  S24                        1.02       0.00       0.00       0.44       0.03        0.00     0.00   0.026
  S25                        1.02       0.00       0.00       0.30       0.03        0.00     0.00   0.033
  S27                        1.02       0.00       0.00       0.30       0.03        0.00     0.00   0.034
  S28                        0.00       0.00       0.00       0.00       0.00        0.00     0.00   0.000
  S29                        0.00       0.00       0.00       0.00       0.00        0.00     0.00   0.000
  S30                        0.00       0.00       0.00       0.00       0.00        0.00     0.00   0.000
  S31                        0.00       0.00       0.00       0.00       0.00        0.00     0.00   0.000
  S32                        0.00       0.00       0.00       0.00       0.00        0.00     0.00   0.000
  S33                        1.02       0.00       0.00       0.30       0.03        0.00     0.00   0.033
  S34                        1.02       0.00       0.00       0.53       0.02        0.01     0.00   0.020
  S35                        1.02       0.00       0.00       0.30       0.03        0.00     0.00   0.034
  S36                        1.02       0.00       0.00       0.30       0.03        0.00     0.00   0.034
  S37                        1.02       0.00       0.00       0.66       0.02        0.00     0.00   0.017
  S39                        1.02       0.00       0.00       0.66       0.01        0.00     0.00   0.014
  S40                        1.02       0.00       0.00       0.66       0.02        0.00     0.00   0.016
  S41                        1.02       0.00       0.00       0.66       0.01        0.00     0.00   0.014
  S42                        1.02       0.00       0.00       0.66       0.01        0.00     0.00   0.014
  S43                        1.02       0.00       0.00       0.66       0.02        0.00     0.00   0.017
  S44                        1.02       0.00       0.00       0.65       0.01        0.00     0.00   0.012
  S45                        0.00       0.00       0.00       0.00       0.00        0.00     0.00   0.000
  S47                        0.00       0.00       0.00       0.00       0.00        0.00     0.00   0.000
  S48                        0.00       0.00       0.00       0.00       0.00        0.00     0.00   0.000
  S49                        0.00       0.00       0.00       0.00       0.00        0.00     0.00   0.000
  S51                        0.00       0.00       0.00       0.00       0.00        0.00     0.00   0.000
  S52                        0.00       0.00       0.00       0.00       0.00        0.00     0.00   0.000
  S53                        0.00       0.00       0.00       0.00       0.00        0.00     0.00   0.000
  S54                        0.00       0.00       0.00       0.00       0.00        0.00     0.00   0.000
  S55                        0.00       0.00       0.00       0.00       0.00        0.00     0.00   0.000
  S56                        0.00       0.00       0.00       0.00       0.00        0.00     0.00   0.000
  S57                        0.00       0.00       0.00       0.00       0.00        0.00     0.00   0.000
  S58                        0.00       0.00       0.00       0.00       0.00        0.00     0.00   0.000
  S59                        0.00       0.00       0.00       0.00       0.00        0.00     0.00   0.000
  S60                        0.00       0.00       0.00       0.00       0.00        0.00     0.00   0.000
  S61                        0.00       0.00       0.00       0.00       0.00        0.00     0.00   0.000
  S62                        0.00       0.00       0.00       0.00       0.00        0.00     0.00   0.000
  S63                        1.02       0.00       0.00       0.15       0.04        0.00     0.00   0.035
  S64                        1.02       0.00       0.00       0.15       0.04        0.00     0.00   0.036
  S65                        1.02       0.00       0.00       0.12       0.01        0.00     0.00   0.015
  
  
  ****************************
  Subcatchment Washoff Summary
  ****************************
  
  --------------------------------------------------------------
                                 TSS            TP           TDP
  Subcatchment                    kg            kg            kg
  --------------------------------------------------------------
  S0                           0.000         0.000         0.000
  S1                           0.000         0.000         0.000
  S2                           0.000         0.000         0.000
  S3                           0.000         0.000         0.000
  S4                           0.000         0.000         0.000
  S6                           0.000         0.000         0.000
  S7                           0.000         0.000         0.000
  S8                           0.000         0.000         0.000
  S9                           0.000         0.000         0.000
  S10                          0.000         0.000         0.000
  S11                          0.000         0.000         0.000
  S12                          0.000         0.000         0.000
  S13                          0.000         0.000         0.000
  S14                          0.000         0.000         0.000
  S16                          0.000         0.000         0.000
  S17                          0.000         0.000         0.000
  S18                          0.000         0.000         0.000
  S19                          0.000         0.000         0.000
  S20                          0.000         0.000         0.000
  S21                       1068.578         0.028         0.031
  S22                          0.096         0.000         0.000
  S23                         26.722         0.009         0.000
  S24                         30.716         0.001         0.000
  S25                         33.777         0.006         0.000
  S27                          1.999         0.001         0.000
  S28                          0.000         0.000         0.000
  S29                          0.000         0.000         0.000
  S30                          0.000         0.000         0.000
  S31                          0.000         0.000         0.000
  S32                          0.000         0.000         0.000
  S33                         20.571         0.001         0.000
  S34                         17.313         0.074         0.002
  S35                          4.681         0.001         0.000
  S36                         37.554         0.005         0.000
  S37                          9.101         0.001         0.000
  S39                        292.875         0.029         0.000
  S40                         48.249         0.009         0.000
  S41                        259.768         0.004         0.000
  S42                        302.828         0.009         0.000
  S43                         55.156         0.007         0.000
  S44                        515.950         0.024         0.000
  S45                          0.000         0.000         0.000
  S47                          0.000         0.000         0.000
  S48                          0.000         0.000         0.000
  S49                          0.000         0.000         0.000
  S51                          0.000         0.000         0.000
  S52                          0.000         0.000         0.000
  S53                          0.000         0.000         0.000
  S54                          0.000         0.000         0.000
  S55                          0.000         0.000         0.000
  S56                          0.000         0.000         0.000
  S57                          0.000         0.000         0.000
  S58                          0.000         0.000         0.000
  S59                          0.000         0.000         0.000
  S60                          0.000         0.000         0.000
  S61                          0.000         0.000         0.000
  S62                          0.000         0.000         0.000
  S63                         27.599         0.006         0.000
  S64                         24.446         0.010         0.000
  S65                        302.098         0.021         0.000
  --------------------------------------------------------------
  System                    3080.077         0.247         0.035
  
  
  ******************
  Node Depth Summary
  ******************
  
  ---------------------------------------------------------------------------------
                                 Average  Maximum  Maximum  Time of Max    Reported
                                   Depth    Depth      HGL   Occurrence   Max Depth
  Node                 Type       Meters   Meters   Meters  days hr:min      Meters
  ---------------------------------------------------------------------------------
  FID1936              JUNCTION     0.00     0.00  1376.30     0  00:00        0.00
  FID1955              JUNCTION     0.00     0.00  1375.92     0  00:00        0.00
  FID1960              JUNCTION     0.00     0.00  1375.86     0  00:00        0.00
  FID1965              JUNCTION     0.00     0.00  1376.30     0  00:00        0.00
  FID1968              JUNCTION     0.00     0.00  1376.40     0  00:00        0.00
  FID2239              JUNCTION     0.04     0.18  1374.69     0  08:40        0.05
  FID2241              JUNCTION     0.01     0.16  1373.29     0  08:50        0.05
  FID2242              JUNCTION     0.03     0.16  1374.20     0  08:40        0.05
  FID2244              JUNCTION     0.02     0.16  1374.52     0  08:51        0.05
  FID2440              JUNCTION     0.21     0.22  1374.47     0  08:51        0.07
  FID2442              JUNCTION     0.00     0.00  1375.27     0  00:00        0.00
  FID2446              JUNCTION     0.00     0.00  1375.80     0  00:00        0.00
  FID2447              JUNCTION     0.00     0.00  1375.70     0  00:00        0.00
  FID2455              JUNCTION     0.14     0.15  1374.14     0  08:50        0.04
  FID2711              JUNCTION     0.00     0.00  1370.18     0  00:00        0.00
  FID2719              JUNCTION     0.00     0.00  1370.10     0  00:00        0.00
  FID2720              JUNCTION     0.00     0.00  1370.20     0  00:00        0.00
  FID2824              JUNCTION     0.00     0.00  1371.28     0  00:00        0.00
  FID2827              JUNCTION     0.00     0.00  1371.30     0  00:00        0.00
  FID2828              JUNCTION     0.00     0.00  1371.32     0  00:00        0.00
  FID2832              JUNCTION     0.00     0.00  1370.60     0  00:00        0.00
  FID2833              JUNCTION     0.00     0.00  1370.62     0  00:00        0.00
  FID2839              JUNCTION     0.00     0.00  1371.20     0  00:00        0.00
  FID2873              JUNCTION     0.00     0.00  1370.70     0  00:00        0.00
  FID2964              JUNCTION     0.00     0.00  1370.78     0  00:00        0.00
  FID2965              JUNCTION     0.17     0.22  1370.48     0  02:54        0.07
  FID4584              JUNCTION     0.00     0.00  1371.34     0  00:00        0.00
  FID5068              JUNCTION     0.01     0.08  1375.46     0  09:00        0.02
  FID5072              JUNCTION     0.22     0.24  1373.54     0  09:00        0.07
  FID5140              JUNCTION     0.05     0.18  1373.40     0  08:50        0.06
  FID5435              JUNCTION     0.05     0.18  1372.93     0  08:50        0.06
  FID5437              JUNCTION     0.00     0.03  1372.98     0  09:00        0.01
  FID5503              JUNCTION     0.00     0.00  1371.33     0  00:00        0.00
  FID5504              JUNCTION     0.00     0.00  1371.36     0  00:00        0.00
  FID5527              JUNCTION     0.00     0.00  1372.50     0  00:00        0.00
  FID5568              JUNCTION     0.23     0.26  1372.65     0  02:15        0.08
  FID5784              JUNCTION     0.24     0.27  1372.27     0  02:24        0.08
  FID5785              JUNCTION     0.01     0.16  1374.59     0  08:56        0.05
  AFID6926             JUNCTION     0.00     0.00  1369.80     0  00:00        0.00
  AFID7360             JUNCTION     0.19     0.24  1370.37     0  09:00        0.07
  AFID7363             JUNCTION     0.18     0.22  1370.39     0  09:00        0.07
  AFID7376             JUNCTION     0.00     0.00  1371.23     0  00:00        0.00
  AFID7377             JUNCTION     0.19     0.24  1370.92     0  02:53        0.07
  AFID7705             JUNCTION     0.34     0.34  1375.31     0  09:00        0.10
  AFID7706             JUNCTION     0.39     0.39  1375.31     0  09:00        0.12
  AFID7792             JUNCTION     0.05     0.17  1374.97     0  08:50        0.05
  AFID8223             JUNCTION     0.24     0.27  1372.28     0  02:24        0.08
  J1                   JUNCTION     0.57     0.57  1375.56     0  09:00        0.17
  FID4901              JUNCTION     0.27     0.27  1375.35     0  09:00        0.08
  J9                   JUNCTION     0.46     0.46  1375.55     0  09:00        0.14
  J11                  JUNCTION     0.31     0.31  1375.52     0  09:00        0.09
  J12                  JUNCTION     0.29     0.29  1375.41     0  09:00        0.09
  J13                  JUNCTION     0.27     0.27  1375.35     0  09:00        0.08
  FID4902              JUNCTION     0.29     0.29  1375.34     0  09:00        0.09
  J14                  JUNCTION     0.22     0.22  1375.13     0  09:00        0.07
  J15                  JUNCTION     0.19     0.20  1374.86     0  09:00        0.06
  J16                  JUNCTION     0.20     0.21  1374.85     0  09:00        0.06
  FID2449              JUNCTION     0.21     0.22  1374.54     0  08:54        0.07
  J17                  JUNCTION     0.11     0.12  1374.09     0  08:50        0.04
  J19                  JUNCTION     0.18     0.21  1373.75     0  01:44        0.06
  FID5069              JUNCTION     0.25     0.27  1373.53     0  09:00        0.08
  FID5139              JUNCTION     0.24     0.27  1372.62     0  02:16        0.08
  J24                  JUNCTION     0.24     0.27  1372.63     0  02:16        0.08
  FID4984              JUNCTION     0.27     0.31  1372.27     0  02:24        0.09
  FID2669              JUNCTION     0.15     0.21  1368.65     0  07:48        0.06
  FID2712              JUNCTION     0.16     0.21  1369.40     0  07:44        0.06
  FID2718              JUNCTION     0.16     0.21  1369.45     0  07:44        0.06
  FID2838              JUNCTION     0.28     0.35  1370.29     0  09:00        0.11
  FID2825              JUNCTION     0.31     0.39  1370.30     0  09:00        0.12
  FID2823              JUNCTION     0.36     0.45  1370.32     0  09:00        0.14
  FID5505              JUNCTION     0.25     0.31  1370.34     0  09:00        0.09
  FID5436              JUNCTION     0.29     0.38  1371.71     0  02:35        0.12
  FID5438              JUNCTION     0.21     0.29  1371.71     0  02:35        0.09
  J49                  JUNCTION     0.31     0.31  1375.33     0  09:00        0.09
  J50                  JUNCTION     0.35     0.35  1375.32     0  09:00        0.11
  J51                  JUNCTION     0.41     0.42  1375.31     0  09:00        0.13
  J52                  JUNCTION     0.42     0.43  1375.31     0  09:00        0.13
  J53                  JUNCTION     0.22     0.22  1375.14     0  09:00        0.07
  J54                  JUNCTION     0.22     0.23  1375.18     0  09:00        0.07
  J55                  JUNCTION     0.27     0.27  1375.30     0  09:00        0.08
  J56                  JUNCTION     0.25     0.26  1375.28     0  09:00        0.08
  J57                  JUNCTION     0.23     0.24  1375.26     0  09:00        0.07
  J58                  JUNCTION     0.23     0.23  1375.21     0  09:00        0.07
  FID1935              JUNCTION     0.23     0.24  1375.12     0  09:00        0.07
  J59                  JUNCTION     0.23     0.23  1375.11     0  09:00        0.07
  J60                  JUNCTION     0.22     0.23  1375.05     0  09:00        0.07
  J61                  JUNCTION     0.21     0.22  1374.99     0  09:00        0.07
  J62                  JUNCTION     0.20     0.21  1374.96     0  09:00        0.06
  J63                  JUNCTION     0.20     0.21  1374.90     0  09:00        0.06
  J64                  JUNCTION     0.20     0.21  1374.82     0  09:00        0.06
  J65                  JUNCTION     0.15     0.16  1374.74     0  01:06        0.05
  J66                  JUNCTION     0.21     0.22  1374.43     0  08:51        0.07
  J67                  JUNCTION     0.21     0.22  1374.37     0  08:53        0.07
  J68                  JUNCTION     0.22     0.23  1374.30     0  08:54        0.07
  J69                  JUNCTION     0.28     0.30  1374.02     0  08:51        0.09
  J70                  JUNCTION     0.27     0.29  1373.94     0  01:37        0.09
  J71                  JUNCTION     0.27     0.31  1373.90     0  01:35        0.09
  J72                  JUNCTION     0.24     0.26  1373.61     0  09:00        0.08
  J73                  JUNCTION     0.25     0.28  1373.50     0  01:54        0.08
  J74                  JUNCTION     0.25     0.29  1373.28     0  01:58        0.09
  J75                  JUNCTION     0.26     0.32  1373.17     0  02:05        0.10
  J76                  JUNCTION     0.24     0.27  1372.60     0  02:16        0.08
  J77                  JUNCTION     0.24     0.27  1372.47     0  02:18        0.08
  J78                  JUNCTION     0.24     0.27  1372.34     0  08:56        0.08
  J79                  JUNCTION     0.24     0.27  1372.28     0  02:24        0.08
  J80                  JUNCTION     0.19     0.24  1371.73     0  02:36        0.07
  J81                  JUNCTION     0.29     0.35  1371.34     0  02:47        0.11
  J82                  JUNCTION     0.31     0.37  1371.30     0  02:46        0.11
  J83                  JUNCTION     0.19     0.24  1371.05     0  02:51        0.07
  J84                  JUNCTION     0.18     0.22  1370.86     0  02:53        0.07
  J85                  JUNCTION     0.17     0.23  1370.76     0  02:49        0.07
  J86                  JUNCTION     0.17     0.23  1370.60     0  02:51        0.07
  J87                  JUNCTION     0.17     0.22  1370.41     0  02:55        0.07
  J88                  JUNCTION     0.24     0.29  1370.34     0  09:00        0.09
  J89                  JUNCTION     0.27     0.34  1370.33     0  09:00        0.10
  J90                  JUNCTION     0.23     0.30  1370.25     0  09:00        0.09
  J91                  JUNCTION     0.23     0.30  1370.18     0  09:00        0.09
  J92                  JUNCTION     0.23     0.30  1370.13     0  09:00        0.09
  J93                  JUNCTION     0.23     0.30  1370.02     0  09:00        0.09
  J94                  JUNCTION     0.23     0.29  1369.95     0  09:00        0.09
  J95                  JUNCTION     0.23     0.29  1369.93     0  09:00        0.09
  J96                  JUNCTION     0.23     0.29  1369.85     0  09:00        0.09
  J97                  JUNCTION     0.23     0.29  1369.79     0  07:41        0.09
  J98                  JUNCTION     0.23     0.29  1369.74     0  07:42        0.09
  J99                  JUNCTION     0.22     0.29  1369.69     0  07:42        0.09
  J100                 JUNCTION     0.22     0.29  1369.65     0  07:43        0.09
  J101                 JUNCTION     0.22     0.28  1369.61     0  07:43        0.09
  J102                 JUNCTION     0.16     0.21  1369.48     0  07:44        0.06
  J103                 JUNCTION     0.16     0.21  1369.43     0  07:44        0.06
  J104                 JUNCTION     0.16     0.21  1369.37     0  07:45        0.06
  J105                 JUNCTION     0.16     0.21  1369.33     0  07:45        0.06
  J106                 JUNCTION     0.16     0.21  1369.28     0  07:45        0.06
  J107                 JUNCTION     0.16     0.21  1369.14     0  07:46        0.06
  J108                 JUNCTION     0.16     0.21  1369.00     0  07:47        0.06
  J109                 JUNCTION     0.15     0.21  1368.89     0  07:47        0.06
  J110                 JUNCTION     0.15     0.21  1368.79     0  07:47        0.06
  J111                 JUNCTION     0.15     0.21  1368.69     0  07:48        0.06
  J112                 JUNCTION     0.15     0.21  1368.53     0  07:48        0.06
  J113                 JUNCTION     0.15     0.21  1368.43     0  07:49        0.06
  J114                 JUNCTION     0.15     0.21  1368.32     0  07:49        0.06
  J115                 JUNCTION     0.15     0.21  1368.26     0  07:50        0.06
  J116                 JUNCTION     0.15     0.21  1368.19     0  07:50        0.06
  J117                 JUNCTION     0.15     0.21  1368.09     0  07:50        0.06
  J118                 JUNCTION     0.15     0.21  1367.98     0  07:51        0.06
  J119                 JUNCTION     0.15     0.21  1367.91     0  07:51        0.06
  J120                 JUNCTION     0.18     0.24  1367.84     0  07:51        0.07
  FID2451              JUNCTION     0.21     0.22  1374.50     0  08:51        0.07
  J121                 JUNCTION     0.16     0.21  1370.96     0  02:52        0.06
  J122                 JUNCTION     0.17     0.22  1370.94     0  02:52        0.07
  FID3706              JUNCTION     0.23     0.30  1370.03     0  09:00        0.09
  FID2831              JUNCTION     0.23     0.29  1369.92     0  09:00        0.09
  FID2689              OUTFALL      0.13     0.17  1367.67     0  07:51        0.05
  
  
  *******************
  Node Inflow Summary
  *******************
  
  -------------------------------------------------------------------------------------------------
                                  Maximum  Maximum                  Lateral       Total        Flow
                                  Lateral    Total  Time of Max      Inflow      Inflow     Balance
                                   Inflow   Inflow   Occurrence      Volume      Volume       Error
  Node                 Type           CMS      CMS  days hr:min    10^6 ltr    10^6 ltr     Percent
  -------------------------------------------------------------------------------------------------
  FID1936              JUNCTION     0.000    0.000     0  00:00           0           0       0.000 ltr
  FID1955              JUNCTION     0.000    0.000     0  00:00           0           0       0.000 ltr
  FID1960              JUNCTION     0.000    0.000     0  00:00           0           0       0.000 ltr
  FID1965              JUNCTION     0.000    0.000     0  00:00           0           0       0.000 ltr
  FID1968              JUNCTION     0.000    0.000     0  00:00           0           0       0.000 ltr
  FID2239              JUNCTION     0.000    0.000     0  08:40     0.00051     0.00051      70.287
  FID2241              JUNCTION     0.000    0.000     0  08:40           0    0.000248     235.837
  FID2242              JUNCTION     0.000    0.000     0  08:40    0.000429    0.000429      72.584
  FID2244              JUNCTION     0.000    0.000     0  08:40    0.000185    0.000185     174.459 ltr
  FID2440              JUNCTION     0.000    0.253     0  08:50           0        7.02       0.284
  FID2442              JUNCTION     0.000    0.000     0  00:00           0           0       0.000 ltr
  FID2446              JUNCTION     0.000    0.000     0  00:00           0           0       0.000 ltr
  FID2447              JUNCTION     0.000    0.000     0  00:00           0           0       0.000 ltr
  FID2455              JUNCTION     0.001    0.253     0  08:50     0.00146        6.89       0.271
  FID2711              JUNCTION     0.000    0.000     0  00:00           0           0       0.000 ltr
  FID2719              JUNCTION     0.000    0.000     0  00:00           0           0       0.000 ltr
  FID2720              JUNCTION     0.000    0.000     0  00:00           0           0       0.000 ltr
  FID2824              JUNCTION     0.000    0.000     0  00:00           0           0       0.000 ltr
  FID2827              JUNCTION     0.000    0.000     0  00:00           0           0       0.000 ltr
  FID2828              JUNCTION     0.000    0.000     0  00:00           0           0       0.000 ltr
  FID2832              JUNCTION     0.000    0.000     0  00:00           0           0       0.000 ltr
  FID2833              JUNCTION     0.000    0.000     0  00:00           0           0       0.000 ltr
  FID2839              JUNCTION     0.000    0.000     0  00:00           0           0       0.000 ltr
  FID2873              JUNCTION     0.000    0.000     0  00:00           0           0       0.000 ltr
  FID2964              JUNCTION     0.000    0.000     0  00:00           0           0       0.000 ltr
  FID2965              JUNCTION     0.000    0.301     0  02:52           0         5.6       0.442
  FID4584              JUNCTION     0.000    0.000     0  00:00           0           0       0.000 ltr
  FID5068              JUNCTION     0.000    0.000     0  08:40    8.95e-05    8.95e-05      89.464 ltr
  FID5072              JUNCTION     0.001    0.255     0  08:58     0.00203         6.5       0.273
  FID5140              JUNCTION     0.005    0.005     0  08:50     0.00713     0.00713       4.102
  FID5435              JUNCTION     0.009    0.009     0  08:50      0.0149      0.0149       1.560
  FID5437              JUNCTION     0.000    0.000     0  08:40    3.84e-05    3.84e-05      38.368 ltr
  FID5503              JUNCTION     0.000    0.000     0  00:00           0           0       0.000 ltr
  FID5504              JUNCTION     0.000    0.000     0  00:00           0           0       0.000 ltr
  FID5527              JUNCTION     0.000    0.000     0  00:00           0           0       0.000 ltr
  FID5568              JUNCTION     0.000    0.271     0  02:09    0.000115        6.31       1.000
  FID5784              JUNCTION     0.000    0.258     0  08:55           0        6.15       0.166
  FID5785              JUNCTION     0.000    0.000     0  08:40           0    0.000299     347.538
  AFID6926             JUNCTION     0.000    0.000     0  00:00           0           0       0.000 ltr
  AFID7360             JUNCTION     0.000    0.288     0  02:55           0        5.55       0.323
  AFID7363             JUNCTION     0.000    0.288     0  02:55           0        5.56       0.164
  AFID7376             JUNCTION     0.000    0.000     0  00:00           0           0       0.000 ltr
  AFID7377             JUNCTION     0.000    0.284     0  02:52           0        5.69       0.192
  AFID7705             JUNCTION     0.000    0.251     0  09:00           0        7.64       0.349
  AFID7706             JUNCTION     0.000    0.251     0  09:00           0        7.67       0.349
  AFID7792             JUNCTION     0.002    0.002     0  08:50     0.00279     0.00279       8.291
  AFID8223             JUNCTION     0.000    0.258     0  08:55           0        6.15       0.034
  J1                   JUNCTION     0.471    0.471     0  09:00        15.2        15.2       0.155
  FID4901              JUNCTION     0.000    0.251     0  09:00           0        7.96       0.256
  J9                   JUNCTION     0.000    0.475     0  00:01           0        15.2       0.303
  J11                  JUNCTION     0.000    0.471     0  09:00           0        15.2       0.470
  J12                  JUNCTION     0.000    0.471     0  09:00           0        15.1       0.493
  J13                  JUNCTION    -0.220    0.546     0  00:07       -7.13          15      -0.408
  FID4902              JUNCTION     0.000    0.251     0  09:00           0        7.94       0.406
  J14                  JUNCTION     0.000    0.251     0  09:00           0        7.45       0.232
  J15                  JUNCTION     0.000    0.251     0  09:00           0        7.28       0.203
  J16                  JUNCTION     0.000    0.251     0  09:00           0        7.27       0.208
  FID2449              JUNCTION     0.000    0.251     0  09:00           0        7.16       1.654
  J17                  JUNCTION     0.001    0.255     0  08:50     0.00189        6.88       0.121
  J19                  JUNCTION     0.000    0.260     0  01:39    0.000508        6.73       1.564
  FID5069              JUNCTION     0.000    0.255     0  08:59           0        6.49       0.258
  FID5139              JUNCTION     0.000    0.259     0  02:15           0        6.25       0.071
  J24                  JUNCTION     0.000    0.260     0  02:15    0.000394        6.25       0.116
  FID4984              JUNCTION     0.000    0.258     0  08:56           0        6.14       1.332
  FID2669              JUNCTION     0.000    0.253     0  07:48           0        5.04       0.134
  FID2712              JUNCTION     0.000    0.253     0  07:44           0        5.14       0.171
  FID2718              JUNCTION     0.000    0.253     0  07:43           0        5.15       0.124
  FID2838              JUNCTION     0.000    0.255     0  09:00           0        5.37       0.396
  FID2825              JUNCTION     0.000    0.256     0  09:00           0        5.41       0.652
  FID2823              JUNCTION     0.000    0.307     0  02:57           0        5.46       0.980
  FID5505              JUNCTION     0.000    0.286     0  02:58           0        5.51       0.231
  FID5436              JUNCTION     0.000    0.277     0  02:39           0           6       1.276
  FID5438              JUNCTION     0.000    0.273     0  02:39           0           6       0.242
  J49                  JUNCTION     0.000    0.251     0  09:00           0        7.91       0.633
  J50                  JUNCTION     0.000    0.251     0  09:00           0        7.86       1.181
  J51                  JUNCTION     0.000    0.251     0  09:00           0        7.77       1.018
  J52                  JUNCTION     0.000    0.251     0  09:00           0        7.69       0.311
  J53                  JUNCTION     0.000    0.251     0  09:00           0        7.47       0.220
  J54                  JUNCTION     0.000    0.251     0  09:00           0         7.5       0.329
  J55                  JUNCTION     0.000    0.251     0  09:00           0        7.61       0.342
  J56                  JUNCTION     0.000    0.251     0  09:00           0        7.59       0.355
  J57                  JUNCTION     0.000    0.251     0  09:00           0        7.56       0.425
  J58                  JUNCTION     0.000    0.251     0  09:00           0        7.53       0.455
  FID1935              JUNCTION     0.000    0.251     0  09:00           0        7.44       0.306
  J59                  JUNCTION     0.000    0.251     0  09:00           0        7.41       0.390
  J60                  JUNCTION     0.000    0.251     0  09:00           0        7.39       0.619
  J61                  JUNCTION     0.000    0.251     0  09:00           0        7.34       0.416
  J62                  JUNCTION     0.000    0.251     0  09:00           0        7.31       0.179
  J63                  JUNCTION     0.000    0.251     0  09:00           0         7.3       0.184
  J64                  JUNCTION     0.000    0.251     0  09:00           0        7.25       0.209
  J65                  JUNCTION     0.000    0.251     0  09:00           0        7.24       1.150
  J66                  JUNCTION     0.000    0.253     0  08:50           0           7       0.368
  J67                  JUNCTION     0.000    0.253     0  08:51           0        6.98       0.559
  J68                  JUNCTION     0.000    0.253     0  08:52    0.000325        6.94       0.657
  J69                  JUNCTION     0.000    0.255     0  08:50           0        6.87       0.623
  J70                  JUNCTION     0.000    0.255     0  08:51    0.000539        6.83       0.807
  J71                  JUNCTION     0.000    0.254     0  08:53           0        6.77       0.597
  J72                  JUNCTION     0.000    0.273     0  01:46    0.000363        6.63       1.990
  J73                  JUNCTION     0.000    0.255     0  09:00           0        6.47       0.532
  J74                  JUNCTION     0.000    0.255     0  09:00           0        6.43       0.776
  J75                  JUNCTION     0.000    0.269     0  02:00    0.000428        6.38       1.225
  J76                  JUNCTION     0.000    0.259     0  02:15           0        6.24       0.317
  J77                  JUNCTION     0.001    0.259     0  02:16     0.00246        6.22       0.598
  J78                  JUNCTION     0.000    0.258     0  02:18           0        6.19       0.449
  J79                  JUNCTION     0.000    0.258     0  08:55           0        6.16       0.166
  J80                  JUNCTION     0.000    0.271     0  02:33    0.000438        6.06       0.967
  J81                  JUNCTION     0.000    0.318     0  02:41           0        5.92       2.224
  J82                  JUNCTION     0.000    0.285     0  02:47           0        5.79       0.923
  J83                  JUNCTION     0.000    0.291     0  02:49           0        5.74       0.516
  J84                  JUNCTION     0.000    0.284     0  02:52           0        5.68       0.319
  J85                  JUNCTION     0.000    0.283     0  02:53           0        5.66       0.599
  J86                  JUNCTION     0.000    0.301     0  02:51           0        5.63       0.611
  J87                  JUNCTION     0.000    0.292     0  02:54           0        5.57       0.236
  J88                  JUNCTION     0.000    0.292     0  02:55           0        5.53       0.404
  J89                  JUNCTION     0.000    0.288     0  02:58           0         5.5       0.656
  J90                  JUNCTION     0.000    0.255     0  09:00           0        5.35       0.218
  J91                  JUNCTION     0.000    0.255     0  09:00           0        5.34       0.320
  J92                  JUNCTION     0.000    0.255     0  09:00           0        5.32       0.395
  J93                  JUNCTION     0.000    0.254     0  09:00           0        5.28       0.211
  J94                  JUNCTION     0.000    0.254     0  09:00           0        5.27       0.248
  J95                  JUNCTION     0.000    0.254     0  09:00           0        5.26       0.095
  J96                  JUNCTION     0.000    0.254     0  09:00           0        5.24       0.359
  J97                  JUNCTION     0.000    0.253     0  09:00           0        5.22       0.309
  J98                  JUNCTION     0.000    0.253     0  09:00           0        5.21       0.274
  J99                  JUNCTION     0.000    0.253     0  07:41           0        5.19       0.238
  J100                 JUNCTION     0.000    0.253     0  07:42           0        5.18       0.205
  J101                 JUNCTION     0.000    0.253     0  07:42           0        5.17       0.241
  J102                 JUNCTION     0.000    0.253     0  07:43           0        5.16       0.174
  J103                 JUNCTION     0.000    0.253     0  07:44           0        5.14       0.135
  J104                 JUNCTION     0.000    0.253     0  07:44           0        5.13       0.182
  J105                 JUNCTION     0.000    0.253     0  07:45           0        5.12       0.227
  J106                 JUNCTION     0.000    0.253     0  07:45           0        5.11       0.254
  J107                 JUNCTION     0.000    0.253     0  07:46           0        5.09       0.249
  J108                 JUNCTION     0.000    0.253     0  07:46           0        5.08       0.225
  J109                 JUNCTION     0.000    0.253     0  07:47           0        5.07       0.190
  J110                 JUNCTION     0.000    0.253     0  07:47           0        5.06       0.184
  J111                 JUNCTION     0.000    0.253     0  07:47           0        5.05       0.136
  J112                 JUNCTION     0.000    0.253     0  07:48           0        5.04       0.195
  J113                 JUNCTION     0.000    0.253     0  07:49           0        5.03       0.188
  J114                 JUNCTION     0.000    0.253     0  07:49           0        5.02       0.162
  J115                 JUNCTION     0.000    0.253     0  07:49           0        5.01       0.119
  J116                 JUNCTION     0.000    0.253     0  07:50           0           5       0.157
  J117                 JUNCTION     0.000    0.253     0  07:50           0           5       0.192
  J118                 JUNCTION     0.000    0.253     0  07:50           0        4.99       0.164
  J119                 JUNCTION     0.000    0.253     0  07:51           0        4.98       0.153
  J120                 JUNCTION     0.000    0.253     0  07:51           0        4.97       0.200
  FID2451              JUNCTION     0.000    0.251     0  09:00           0        7.04       0.277
  J121                 JUNCTION     0.000    0.285     0  02:51           0        5.71       0.176
  J122                 JUNCTION     0.000    0.285     0  02:51           0         5.7       0.171
  FID3706              JUNCTION     0.000    0.254     0  09:00           0         5.3       0.327
  FID2831              JUNCTION     0.000    0.254     0  09:00           0        5.25       0.211
  FID2689              OUTFALL      0.000    0.253     0  07:51           0        4.96       0.000
  
  
  **********************
  Node Surcharge Summary
  **********************
  
  No nodes were surcharged.
  
  
  *********************
  Node Flooding Summary
  *********************
  
  No nodes were flooded.
  
  
  ***********************
  Outfall Loading Summary
  ***********************
  
  -----------------------------------------------------------------------------------------------------
                         Flow       Avg       Max       Total         Total         Total         Total
                         Freq      Flow      Flow      Volume           TSS            TP           TDP
  Outfall Node           Pcnt       CMS       CMS    10^6 ltr            kg            kg            kg
  -----------------------------------------------------------------------------------------------------
  FID2689               74.05     0.250     0.253       4.961       120.007         0.130         0.033
  -----------------------------------------------------------------------------------------------------
  System                74.05     0.250     0.253       4.961       120.007         0.130         0.033
  
  
  ********************
  Link Flow Summary
  ********************
  
  -----------------------------------------------------------------------------
                                 Maximum  Time of Max   Maximum    Max/    Max/
                                  |Flow|   Occurrence   |Veloc|    Full    Full
  Link                 Type          CMS  days hr:min     m/sec    Flow   Depth
  -----------------------------------------------------------------------------
  FID1123              CONDUIT     0.000     0  00:00      0.00    0.00    0.00
  FID1139              CONDUIT     0.000     0  00:00      0.00    0.00    0.00
  FID1148              CONDUIT     0.000     0  00:00      0.00    0.00    0.00
  FID1149              CONDUIT     0.000     0  00:00      0.00    0.00    0.00
  FID3364              CONDUIT     0.000     0  00:00      0.00    0.00    0.05
  FID3671              CONDUIT     0.000     0  00:00      0.00    0.00    0.00
  FID3672              CONDUIT     0.000     0  00:00      0.00    0.00    0.00
  FID3762              CONDUIT     0.000     0  00:00      0.00    0.00    0.00
  FID3765              CONDUIT     0.000     0  00:00      0.00    0.00    0.01
  FID4112              CONDUIT     0.000     0  00:00      0.00    0.00    0.00
  FID4186              CONDUIT     0.000     0  08:40      0.42    0.00    0.03
  FID4187              CONDUIT     0.000     0  08:50      0.63    0.00    0.02
  FID4201              CONDUIT     0.000     0  00:00      0.00    0.00    0.00
  FID4202              CONDUIT     0.000     0  00:00      0.00    0.00    0.00
  FID4203              CONDUIT     0.000     0  00:00      0.00    0.00    0.03
  FID4299              CONDUIT     0.000     0  00:00      0.00    0.00    0.00
  FID4372              CONDUIT     0.005     0  08:50      0.17    0.00    0.07
  FID4498              CONDUIT     0.000     0  00:00      0.00    0.00    0.08
  FID4806              CONDUIT     0.009     0  08:50      1.42    0.00    0.03
  FID4807              CONDUIT     0.000     0  00:00      0.00    0.00    0.00
  FID4882              CONDUIT     0.000     0  00:00      0.00    0.00    0.00
  FID4884              CONDUIT     0.000     0  00:00      0.00    0.00    0.00
  FID4914              CONDUIT     0.000     0  00:00      0.00    0.00    0.26
  FID4915              CONDUIT     0.000     0  00:00      0.00    0.00    0.00
  FID4916              CONDUIT     0.000     0  00:00      0.00    0.00    0.00
  FID4917              CONDUIT     0.000     0  00:00      0.00    0.00    0.00
  FID5307              CONDUIT     0.000     0  08:40      0.18    0.00    0.05
  FID5308              CONDUIT     0.000     0  08:51      0.00    0.00    0.01
  FID5312              CONDUIT     0.000     0  08:56      0.27    0.00    0.01
  FID5865              CONDUIT     0.000     0  00:00      0.00    0.00    0.00
  C9                   CHANNEL     0.475     0  00:01      0.63    0.04    0.36
  C12                  CHANNEL     0.471     0  09:00      0.48    0.15    0.35
  C13                  CHANNEL     0.546     0  00:07      1.13    0.18    0.33
  C14                  CHANNEL     0.251     0  09:00      0.94    0.08    0.32
  C52                  CONDUIT     0.002     0  08:50      0.19    0.00    0.07
  C130                 CONDUIT     0.000     0  00:00      0.00    0.00    0.00
  C131                 CONDUIT     0.000     0  00:00      0.00    0.00    0.00
  C139                 CONDUIT     0.000     0  00:00      0.00    0.00    0.00
  C191                 CHANNEL     0.251     0  09:00      0.43    0.08    0.35
  C193                 CHANNEL     0.251     0  09:00      0.37    0.08    0.45
  C194                 CHANNEL     0.251     0  09:00      0.27    0.08    0.49
  C195                 CHANNEL     0.251     0  09:00      0.34    0.04    0.39
  C196                 CONDUIT     0.251     0  09:00      0.32    0.13    0.36
  C197                 CONDUIT     0.251     0  09:00      0.21    0.09    0.52
  C198                 CHANNEL     0.251     0  09:00      0.22    0.04    0.29
  C199                 CHANNEL     0.251     0  09:00      0.26    0.80    0.32
  C200                 CHANNEL     0.251     0  09:00      0.29    0.72    0.29
  C201                 CHANNEL     0.251     0  09:00      0.31    0.05    0.23
  C202                 CHANNEL     0.251     0  09:00      0.32    0.05    0.23
  C203                 CHANNEL     0.251     0  09:00      0.32    0.05    0.23
  C204                 CHANNEL     0.251     0  09:00      0.84    0.05    0.22
  C205                 CONDUIT     0.251     0  09:00      0.27    0.13    0.28
  C206                 CHANNEL     0.251     0  09:00      0.36    0.05    0.23
  C207                 CHANNEL     0.251     0  09:00      0.33    0.05    0.23
  C208                 CHANNEL     0.251     0  09:00      0.33    0.05    0.22
  C209                 CHANNEL     0.251     0  09:00      0.35    0.05    0.21
  C210                 CHANNEL     0.251     0  09:00      0.45    0.06    0.24
  C211                 CHANNEL     0.251     0  09:00      0.45    0.07    0.21
  C212                 CONDUIT     0.251     0  09:00      0.32    0.11    0.25
  C213                 CHANNEL     0.251     0  09:00      0.39    0.07    0.21
  C214                 CHANNEL     0.251     0  09:00      1.09    0.07    0.18
  C215                 CONDUIT     0.251     0  09:00      0.33    0.11    0.23
  C216                 CONDUIT     0.251     0  09:00      0.38    0.14    0.21
  C217                 CONDUIT     0.251     0  09:00      0.34    0.07    0.16
  C218                 CHANNEL     0.253     0  08:50      0.36    0.07    0.22
  C219                 CHANNEL     0.253     0  08:51      0.38    0.07    0.23
  C220                 CHANNEL     0.253     0  08:53      0.39    0.07    0.23
  C221                 CHANNEL     0.253     0  08:53      0.44    0.07    0.19
  C222                 CONDUIT     0.253     0  08:50      0.44    0.12    0.16
  C223                 CHANNEL     0.255     0  08:50      0.69    0.02    0.18
  C224                 CHANNEL     0.254     0  08:51      0.42    0.12    0.34
  C225                 CHANNEL     0.254     0  08:53      0.42    0.12    0.35
  C226                 CHANNEL     0.260     0  01:39      0.52    0.12    0.28
  C227                 CONDUIT     0.273     0  01:46      0.33    0.16    0.28
  C228                 CHANNEL     0.254     0  09:00      0.56    0.08    0.24
  C229                 CONDUIT     0.255     0  08:59      0.19    0.03    0.17
  C230                 CHANNEL     0.255     0  09:00      0.56    0.08    0.25
  C231                 CHANNEL     0.255     0  09:00      0.52    0.08    0.26
  C232                 CHANNEL     0.269     0  02:00      0.60    0.08    0.27
  C233                 CHANNEL     0.271     0  02:09      0.54    0.08    0.25
  C234                 CONDUIT     0.260     0  02:15      0.35    0.08    0.19
  C235                 CHANNEL     0.259     0  02:15      0.53    0.08    0.25
  C236                 CHANNEL     0.259     0  02:15      0.72    0.09    0.28
  C237                 CHANNEL     0.259     0  02:16      0.48    0.09    0.28
  C238                 CHANNEL     0.258     0  02:18      0.49    0.09    0.28
  C239                 CHANNEL     0.258     0  08:55      0.55    0.09    0.28
  C240                 CHANNEL     0.258     0  08:55      0.69    0.09    0.28
  C241                 CHANNEL     0.258     0  08:55      0.83    0.09    0.28
  C242                 CONDUIT     0.258     0  08:56      0.49    0.07    0.24
  C243                 CHANNEL     0.271     0  02:33      0.50    0.09    0.28
  C244                 CHANNEL     0.273     0  02:39      1.09    0.03    0.17
  C245                 CONDUIT     0.277     0  02:39      0.38    0.06    0.26
  C246                 CHANNEL     0.318     0  02:41      0.42    0.07    0.30
  C247                 CHANNEL     0.285     0  02:47      0.37    0.07    0.31
  C248                 CHANNEL     0.291     0  02:49      0.47    0.07    0.27
  C249                 CHANNEL     0.285     0  02:51      6.21    0.08    0.21
  C250                 CONDUIT     0.285     0  02:51      0.42    0.08    0.17
  C251                 CONDUIT     0.284     0  02:52      0.39    0.08    0.18
  C252                 CHANNEL     0.284     0  02:52      2.98    0.08    0.22
  C253                 CHANNEL     0.283     0  02:53      2.04    0.05    0.21
  C254                 CHANNEL     0.301     0  02:51      5.00    0.05    0.21
  C255                 CHANNEL     0.301     0  02:52      0.51    0.05    0.21
  C256                 CHANNEL     0.292     0  02:54      1.44    0.05    0.21
  C257                 CHANNEL     0.288     0  02:55      4.48    0.05    0.20
  C258                 CONDUIT     0.288     0  02:55      0.52    0.08    0.18
  C259                 CHANNEL     0.292     0  02:55      1.07    0.05    0.25
  C260                 CHANNEL     0.286     0  02:58      1.14    0.05    0.29
  C261                 CHANNEL     0.288     0  02:58      0.71    0.05    0.31
  C262                 CHANNEL     0.307     0  02:57      0.54    0.05    0.37
  C263                 CHANNEL     0.256     0  09:00      0.53    0.04    0.27
  C264                 CONDUIT     0.255     0  09:00      0.29    0.10    0.27
  C265                 CHANNEL     0.255     0  09:00      0.61    0.04    0.21
  C266                 CHANNEL     0.255     0  09:00      0.57    0.04    0.21
  C267                 CHANNEL     0.255     0  09:00      0.67    0.04    0.21
  C268                 CHANNEL     0.254     0  09:00      0.54    0.04    0.21
  C269                 CHANNEL     0.254     0  09:00      0.83    0.04    0.21
  C270                 CHANNEL     0.254     0  09:00      0.53    0.04    0.21
  C271                 CHANNEL     0.254     0  09:00      0.57    0.04    0.21
  C272                 CHANNEL     0.254     0  09:00      0.99    0.04    0.21
  C273                 CHANNEL     0.254     0  09:00      0.56    0.04    0.21
  C274                 CHANNEL     0.253     0  09:00      0.57    0.04    0.21
  C275                 CHANNEL     0.253     0  09:00      0.60    0.04    0.21
  C276                 CHANNEL     0.253     0  07:41      0.60    0.04    0.20
  C277                 CHANNEL     0.253     0  07:42      0.67    0.04    0.20
  C278                 CHANNEL     0.253     0  07:42      0.88    0.04    0.20
  C279                 CHANNEL     0.253     0  07:43      0.62    0.04    0.17
  C280                 CHANNEL     0.253     0  07:43      0.47    0.06    0.21
  C281                 CHANNEL     0.253     0  07:44      0.66    0.06    0.21
  C282                 CHANNEL     0.253     0  07:44      0.53    0.06    0.21
  C283                 CHANNEL     0.253     0  07:44      0.54    0.06    0.21
  C284                 CHANNEL     0.253     0  07:45      0.55    0.06    0.21
  C285                 CHANNEL     0.253     0  07:45      0.50    0.06    0.21
  C286                 CHANNEL     0.253     0  07:46      0.75    0.04    0.21
  C287                 CHANNEL     0.253     0  07:46      0.66    0.04    0.21
  C288                 CHANNEL     0.253     0  07:47      0.67    0.04    0.21
  C289                 CHANNEL     0.253     0  07:47      0.74    0.04    0.21
  C290                 CHANNEL     0.253     0  07:47      0.64    0.04    0.21
  C291                 CHANNEL     0.253     0  07:48      0.84    0.04    0.21
  C292                 CHANNEL     0.253     0  07:48      0.85    0.04    0.21
  C293                 CHANNEL     0.253     0  07:49      0.86    0.04    0.21
  C294                 CHANNEL     0.253     0  07:49      0.66    0.04    0.21
  C295                 CHANNEL     0.253     0  07:49      0.78    0.04    0.21
  C296                 CHANNEL     0.253     0  07:50      0.87    0.04    0.21
  C297                 CHANNEL     0.253     0  07:50      0.88    0.04    0.21
  C298                 CHANNEL     0.253     0  07:50      0.70    0.04    0.21
  C299                 CHANNEL     0.253     0  07:51      0.84    0.04    0.21
  C300                 CHANNEL     0.253     0  07:51      0.76    0.04    0.23
  C301                 CHANNEL     0.253     0  07:51      0.84    0.03    0.16
  C302                 CHANNEL     0.471     0  09:00      0.56    0.05    0.30
  C303                 CHANNEL     0.251     0  09:00      0.41    0.08    0.39
  C353                 CONDUIT     0.000     0  00:00      0.00    0.00    0.00
  
  
  ***************************
  Flow Classification Summary
  ***************************
  
  -------------------------------------------------------------------------------------
                      Adjusted    ---------- Fraction of Time in Flow Class ---------- 
                       /Actual         Up    Down  Sub   Sup   Up    Down  Norm  Inlet 
  Conduit               Length    Dry  Dry   Dry   Crit  Crit  Crit  Crit  Ltd   Ctrl  
  -------------------------------------------------------------------------------------
  FID1123                 1.00   1.00  0.00  0.00  0.00  0.00  0.00  0.00  0.00  0.00
  FID1139                 1.00   1.00  0.00  0.00  0.00  0.00  0.00  0.00  0.00  0.00
  FID1148                 1.00   1.00  0.00  0.00  0.00  0.00  0.00  0.00  0.00  0.00
  FID1149                 1.00   1.00  0.00  0.00  0.00  0.00  0.00  0.00  0.00  0.00
  FID3364                 1.00   0.16  0.84  0.00  0.00  0.00  0.00  0.00  0.00  0.00
  FID3671                 1.00   1.00  0.00  0.00  0.00  0.00  0.00  0.00  0.00  0.00
  FID3672                 1.00   1.00  0.00  0.00  0.00  0.00  0.00  0.00  0.00  0.00
  FID3762                 1.00   1.00  0.00  0.00  0.00  0.00  0.00  0.00  0.00  0.00
  FID3765                 1.00   0.05  0.95  0.00  0.00  0.00  0.00  0.00  0.00  0.00
  FID4112                 1.00   1.00  0.00  0.00  0.00  0.00  0.00  0.00  0.00  0.00
  FID4186                 1.00   0.94  0.00  0.00  0.00  0.02  0.00  0.04  0.00  0.00
  FID4187                 1.00   0.98  0.00  0.00  0.00  0.00  0.00  0.02  0.00  0.00
  FID4201                 1.00   1.00  0.00  0.00  0.00  0.00  0.00  0.00  0.00  0.00
  FID4202                 1.00   1.00  0.00  0.00  0.00  0.00  0.00  0.00  0.00  0.00
  FID4203                 1.00   0.71  0.29  0.00  0.00  0.00  0.00  0.00  0.00  0.00
  FID4299                 1.00   1.00  0.00  0.00  0.00  0.00  0.00  0.00  0.00  0.00
  FID4372                 1.00   0.08  0.62  0.00  0.30  0.00  0.00  0.00  0.25  0.00
  FID4498                 1.00   0.18  0.82  0.00  0.00  0.00  0.00  0.00  0.00  0.00
  FID4806                 1.00   0.70  0.00  0.00  0.00  0.00  0.00  0.30  0.00  0.00
  FID4807                 1.00   1.00  0.00  0.00  0.00  0.00  0.00  0.00  0.00  0.00
  FID4882                 1.00   1.00  0.00  0.00  0.00  0.00  0.00  0.00  0.00  0.00
  FID4884                 1.00   1.00  0.00  0.00  0.00  0.00  0.00  0.00  0.00  0.00
  FID4914                 1.00   0.13  0.87  0.00  0.00  0.00  0.00  0.00  0.00  0.00
  FID4915                 1.00   1.00  0.00  0.00  0.00  0.00  0.00  0.00  0.00  0.00
  FID4916                 1.00   1.00  0.00  0.00  0.00  0.00  0.00  0.00  0.00  0.00
  FID4917                 1.00   1.00  0.00  0.00  0.00  0.00  0.00  0.00  0.00  0.00
  FID5307                 1.00   0.94  0.00  0.00  0.02  0.00  0.00  0.04  0.00  0.00
  FID5308                 1.00   0.98  0.00  0.00  0.00  0.00  0.00  0.02  0.00  0.00
  FID5312                 1.00   0.98  0.00  0.00  0.00  0.00  0.00  0.02  0.00  0.00
  FID5865                 1.00   1.00  0.00  0.00  0.00  0.00  0.00  0.00  0.00  0.00
  C9                      1.00   0.00  0.00  0.00  1.00  0.00  0.00  0.00  0.00  0.00
  C12                     1.00   0.00  0.00  0.00  1.00  0.00  0.00  0.00  0.00  0.00
  C13                     1.00   0.00  0.00  0.00  1.00  0.00  0.00  0.00  0.00  0.00
  C14                     1.00   0.00  0.00  0.00  1.00  0.00  0.00  0.00  0.00  0.00
  C52                     1.00   0.04  0.66  0.00  0.29  0.00  0.00  0.00  0.24  0.00
  C130                    1.00   1.00  0.00  0.00  0.00  0.00  0.00  0.00  0.00  0.00
  C131                    1.00   1.00  0.00  0.00  0.00  0.00  0.00  0.00  0.00  0.00
  C139                    1.00   1.00  0.00  0.00  0.00  0.00  0.00  0.00  0.00  0.00
  C191                    1.00   0.00  0.00  0.00  1.00  0.00  0.00  0.00  0.00  0.00
  C193                    1.00   0.00  0.00  0.00  1.00  0.00  0.00  0.00  0.00  0.00
  C194                    1.00   0.01  0.00  0.00  0.99  0.00  0.00  0.00  0.00  0.00
  C195                    1.00   0.01  0.00  0.00  0.99  0.00  0.00  0.00  0.00  0.00
  C196                    1.00   0.00  0.00  0.00  1.00  0.00  0.00  0.00  0.00  0.00
  C197                    1.00   0.01  0.00  0.00  0.99  0.00  0.00  0.00  0.00  0.00
  C198                    1.00   0.01  0.00  0.00  0.99  0.00  0.00  0.00  0.00  0.00
  C199                    1.00   0.01  0.00  0.00  0.99  0.00  0.00  0.00  0.00  0.00
  C200                    1.00   0.01  0.00  0.00  0.99  0.00  0.00  0.00  0.00  0.00
  C201                    1.00   0.01  0.00  0.00  0.99  0.00  0.00  0.00  0.00  0.00
  C202                    1.00   0.02  0.00  0.00  0.98  0.00  0.00  0.00  0.00  0.00
  C203                    1.00   0.02  0.00  0.00  0.98  0.00  0.00  0.00  0.00  0.00
  C204                    1.00   0.02  0.00  0.00  0.98  0.00  0.00  0.00  0.00  0.00
  C205                    1.00   0.02  0.00  0.00  0.98  0.00  0.00  0.00  0.00  0.00
  C206                    1.00   0.02  0.00  0.00  0.98  0.00  0.00  0.00  0.00  0.00
  C207                    1.00   0.02  0.00  0.00  0.98  0.00  0.00  0.00  0.00  0.00
  C208                    1.00   0.02  0.00  0.00  0.98  0.00  0.00  0.00  0.00  0.00
  C209                    1.00   0.02  0.00  0.00  0.98  0.00  0.00  0.00  0.00  0.00
  C210                    1.00   0.03  0.00  0.00  0.97  0.00  0.00  0.00  0.00  0.00
  C211                    1.00   0.03  0.00  0.00  0.97  0.00  0.00  0.00  0.00  0.00
  C212                    1.00   0.03  0.00  0.00  0.97  0.00  0.00  0.00  0.00  0.00
  C213                    1.00   0.03  0.00  0.00  0.97  0.00  0.00  0.00  0.00  0.00
  C214                    1.00   0.03  0.00  0.00  0.97  0.00  0.00  0.00  0.00  0.00
  C215                    1.00   0.03  0.00  0.00  0.97  0.00  0.00  0.00  0.87  0.00
  C216                    1.00   0.03  0.00  0.00  0.97  0.00  0.00  0.00  0.00  0.00
  C217                    1.00   0.03  0.00  0.00  0.97  0.00  0.00  0.00  0.00  0.00
  C218                    1.00   0.03  0.00  0.00  0.97  0.00  0.00  0.00  0.00  0.00
  C219                    1.00   0.04  0.00  0.00  0.96  0.00  0.00  0.00  0.00  0.00
  C220                    1.00   0.04  0.00  0.00  0.96  0.00  0.00  0.00  0.00  0.00
  C221                    1.00   0.04  0.00  0.00  0.96  0.00  0.00  0.00  0.00  0.00
  C222                    1.00   0.05  0.00  0.00  0.95  0.00  0.00  0.00  0.00  0.00
  C223                    1.00   0.05  0.00  0.00  0.95  0.00  0.00  0.00  0.85  0.00
  C224                    1.00   0.05  0.00  0.00  0.95  0.00  0.00  0.00  0.00  0.00
  C225                    1.00   0.05  0.00  0.00  0.95  0.00  0.00  0.00  0.00  0.00
  C226                    1.00   0.05  0.00  0.00  0.95  0.00  0.00  0.00  0.00  0.00
  C227                    1.00   0.05  0.00  0.00  0.95  0.00  0.00  0.00  0.80  0.00
  C228                    1.00   0.06  0.00  0.00  0.94  0.00  0.00  0.00  0.00  0.00
  C229                    1.00   0.06  0.00  0.00  0.94  0.00  0.00  0.00  0.00  0.00
  C230                    1.00   0.06  0.00  0.00  0.94  0.00  0.00  0.00  0.00  0.00
  C231                    1.00   0.07  0.00  0.00  0.93  0.00  0.00  0.00  0.70  0.00
  C232                    1.00   0.07  0.00  0.00  0.93  0.00  0.00  0.00  0.00  0.00
  C233                    1.00   0.07  0.00  0.00  0.93  0.00  0.00  0.00  0.00  0.00
  C234                    1.00   0.07  0.00  0.00  0.93  0.00  0.00  0.00  0.00  0.00
  C235                    1.00   0.07  0.00  0.00  0.93  0.00  0.00  0.00  0.00  0.00
  C236                    1.00   0.08  0.00  0.00  0.92  0.00  0.00  0.00  0.00  0.00
  C237                    1.00   0.08  0.00  0.00  0.92  0.00  0.00  0.00  0.29  0.00
  C238                    1.00   0.08  0.00  0.00  0.92  0.00  0.00  0.00  0.68  0.00
  C239                    1.00   0.08  0.00  0.00  0.92  0.00  0.00  0.00  0.00  0.00
  C240                    1.00   0.08  0.00  0.00  0.92  0.00  0.00  0.00  0.00  0.00
  C241                    1.00   0.08  0.00  0.00  0.92  0.00  0.00  0.00  0.00  0.00
  C242                    1.00   0.08  0.00  0.00  0.92  0.00  0.00  0.00  0.00  0.00
  C243                    1.00   0.09  0.00  0.00  0.91  0.00  0.00  0.00  0.00  0.00
  C244                    1.00   0.09  0.00  0.00  0.90  0.01  0.00  0.00  0.00  0.00
  C245                    1.00   0.09  0.00  0.00  0.91  0.00  0.00  0.00  0.00  0.00
  C246                    1.00   0.10  0.00  0.00  0.90  0.00  0.00  0.00  0.69  0.00
  C247                    1.00   0.11  0.00  0.00  0.89  0.00  0.00  0.00  0.00  0.00
  C248                    1.00   0.12  0.00  0.00  0.88  0.00  0.00  0.00  0.00  0.00
  C249                    1.00   0.13  0.00  0.00  0.87  0.00  0.00  0.00  0.00  0.00
  C250                    1.00   0.14  0.00  0.00  0.86  0.00  0.00  0.00  0.00  0.00
  C251                    1.00   0.14  0.00  0.00  0.86  0.00  0.00  0.00  0.00  0.00
  C252                    1.00   0.15  0.00  0.00  0.85  0.00  0.00  0.00  0.00  0.00
  C253                    1.00   0.15  0.00  0.00  0.85  0.00  0.00  0.00  0.18  0.00
  C254                    1.00   0.15  0.00  0.00  0.84  0.00  0.00  0.00  0.18  0.00
  C255                    1.00   0.16  0.00  0.00  0.84  0.00  0.00  0.00  0.67  0.00
  C256                    1.00   0.16  0.00  0.00  0.83  0.00  0.00  0.00  0.00  0.00
  C257                    1.00   0.17  0.00  0.00  0.83  0.00  0.00  0.00  0.00  0.00
  C258                    1.00   0.17  0.00  0.00  0.83  0.00  0.00  0.00  0.00  0.00
  C259                    1.00   0.18  0.00  0.00  0.82  0.00  0.00  0.00  0.00  0.00
  C260                    1.00   0.18  0.00  0.00  0.82  0.00  0.00  0.00  0.00  0.00
  C261                    1.00   0.18  0.00  0.00  0.82  0.00  0.00  0.00  0.00  0.00
  C262                    1.00   0.18  0.00  0.00  0.82  0.00  0.00  0.00  0.00  0.00
  C263                    1.00   0.18  0.00  0.00  0.81  0.00  0.00  0.00  0.00  0.00
  C264                    1.00   0.19  0.01  0.00  0.81  0.00  0.00  0.00  0.00  0.00
  C265                    1.00   0.19  0.00  0.00  0.81  0.00  0.00  0.00  0.00  0.00
  C266                    1.00   0.20  0.00  0.00  0.80  0.00  0.00  0.00  0.00  0.00
  C267                    1.00   0.20  0.00  0.00  0.80  0.00  0.00  0.00  0.00  0.00
  C268                    1.00   0.20  0.00  0.00  0.80  0.00  0.00  0.00  0.00  0.00
  C269                    1.00   0.21  0.00  0.00  0.79  0.00  0.00  0.00  0.00  0.00
  C270                    1.00   0.21  0.00  0.00  0.79  0.00  0.00  0.00  0.00  0.00
  C271                    1.00   0.21  0.00  0.00  0.79  0.00  0.00  0.00  0.00  0.00
  C272                    1.00   0.21  0.00  0.00  0.79  0.00  0.00  0.00  0.00  0.00
  C273                    1.00   0.21  0.00  0.00  0.79  0.00  0.00  0.00  0.00  0.00
  C274                    1.00   0.22  0.00  0.00  0.78  0.00  0.00  0.00  0.00  0.00
  C275                    1.00   0.22  0.00  0.00  0.78  0.00  0.00  0.00  0.00  0.00
  C276                    1.00   0.22  0.00  0.00  0.78  0.00  0.00  0.00  0.00  0.00
  C277                    1.00   0.22  0.00  0.00  0.78  0.00  0.00  0.00  0.00  0.00
  C278                    1.00   0.22  0.00  0.00  0.78  0.00  0.00  0.00  0.00  0.00
  C279                    1.00   0.23  0.00  0.00  0.77  0.00  0.00  0.00  0.00  0.00
  C280                    1.00   0.23  0.00  0.00  0.77  0.00  0.00  0.00  0.00  0.00
  C281                    1.00   0.23  0.00  0.00  0.77  0.00  0.00  0.00  0.00  0.00
  C282                    1.00   0.23  0.00  0.00  0.77  0.00  0.00  0.00  0.00  0.00
  C283                    1.00   0.23  0.00  0.00  0.77  0.00  0.00  0.00  0.00  0.00
  C284                    1.00   0.23  0.00  0.00  0.77  0.00  0.00  0.00  0.00  0.00
  C285                    1.00   0.23  0.00  0.00  0.77  0.00  0.00  0.00  0.00  0.00
  C286                    1.00   0.24  0.00  0.00  0.76  0.00  0.00  0.00  0.11  0.00
  C287                    1.00   0.24  0.00  0.00  0.76  0.00  0.00  0.00  0.12  0.00
  C288                    1.00   0.24  0.00  0.00  0.76  0.00  0.00  0.00  0.09  0.00
  C289                    1.00   0.24  0.00  0.00  0.76  0.00  0.00  0.00  0.09  0.00
  C290                    1.00   0.24  0.00  0.00  0.76  0.00  0.00  0.00  0.08  0.00
  C291                    1.00   0.25  0.00  0.00  0.75  0.00  0.00  0.00  0.00  0.00
  C292                    1.00   0.25  0.00  0.00  0.75  0.00  0.00  0.00  0.10  0.00
  C293                    1.00   0.25  0.00  0.00  0.75  0.00  0.00  0.00  0.08  0.00
  C294                    1.00   0.25  0.00  0.00  0.75  0.00  0.00  0.00  0.10  0.00
  C295                    1.00   0.25  0.00  0.00  0.75  0.00  0.00  0.00  0.00  0.00
  C296                    1.00   0.25  0.00  0.00  0.75  0.00  0.00  0.00  0.00  0.00
  C297                    1.00   0.25  0.00  0.00  0.75  0.00  0.00  0.00  0.55  0.00
  C298                    1.00   0.25  0.00  0.00  0.75  0.00  0.00  0.00  0.00  0.00
  C299                    1.00   0.26  0.00  0.00  0.74  0.00  0.00  0.00  0.00  0.00
  C300                    1.00   0.26  0.00  0.00  0.74  0.00  0.00  0.00  0.61  0.00
  C301                    1.00   0.26  0.00  0.00  0.74  0.00  0.00  0.00  0.00  0.00
  C302                    1.00   0.00  0.00  0.00  1.00  0.00  0.00  0.00  0.00  0.00
  C303                    1.00   0.00  0.00  0.00  1.00  0.00  0.00  0.00  0.00  0.00
  C353                    1.00   1.00  0.00  0.00  0.00  0.00  0.00  0.00  0.00  0.00
  
  
  *************************
  Conduit Surcharge Summary
  *************************
  
  No conduits were surcharged.
  
  
  ***************************
  Link Pollutant Load Summary
  ***************************
  
  --------------------------------------------------------------
                                 TSS            TP           TDP
  Link                            kg            kg            kg
  --------------------------------------------------------------
  FID1123                      0.000         0.000         0.000
  FID1139                      0.000         0.000         0.000
  FID1148                      0.000         0.000         0.000
  FID1149                      0.000         0.000         0.000
  FID3364                      0.000         0.000         0.000
  FID3671                      0.000         0.000         0.000
  FID3672                      0.000         0.000         0.000
  FID3762                      0.000         0.000         0.000
  FID3765                      0.000         0.000         0.000
  FID4112                      0.000         0.000         0.000
  FID4186                      0.381         0.003         0.000
  FID4187                      0.008         0.000         0.000
  FID4201                      0.000         0.000         0.000
  FID4202                      0.000         0.000         0.000
  FID4203                      0.000         0.000         0.000
  FID4299                      0.000         0.000         0.000
  FID4372                     14.015         0.051         0.002
  FID4498                      0.000         0.000         0.000
  FID4806                   1061.280         0.027         0.031
  FID4807                      0.000         0.000         0.000
  FID4882                      0.000         0.000         0.000
  FID4884                      0.000         0.000         0.000
  FID4914                      0.000         0.000         0.000
  FID4915                      0.000         0.000         0.000
  FID4916                      0.000         0.000         0.000
  FID4917                      0.000         0.000         0.000
  FID5307                      0.590         0.000         0.000
  FID5308                      0.000         0.000         0.000
  FID5312                      0.016         0.000         0.000
  FID5865                      0.000         0.000         0.000
  C9                          82.852         0.380         0.102
  C12                         82.201         0.377         0.101
  C13                         81.803         0.375         0.100
  C14                         43.347         0.199         0.053
  C52                          0.041         0.003         0.000
  C130                         0.000         0.000         0.000
  C131                         0.000         0.000         0.000
  C139                         0.000         0.000         0.000
  C191                        43.060         0.197         0.053
  C193                        42.289         0.194         0.052
  C194                        41.863         0.192         0.051
  C195                        41.733         0.191         0.051
  C196                        43.235         0.198         0.053
  C197                        41.576         0.190         0.051
  C198                        41.434         0.190         0.051
  C199                        41.294         0.189         0.051
  C200                        41.150         0.189         0.050
  C201                        40.976         0.188         0.050
  C202                        40.792         0.187         0.050
  C203                        40.658         0.186         0.050
  C204                        40.569         0.186         0.050
  C205                        40.475         0.185         0.050
  C206                        40.352         0.185         0.049
  C207                        40.194         0.184         0.049
  C208                        39.947         0.183         0.049
  C209                        39.783         0.182         0.049
  C210                        39.711         0.182         0.049
  C211                        39.638         0.182         0.049
  C212                        39.558         0.181         0.049
  C213                        39.476         0.181         0.048
  C214                        39.393         0.180         0.048
  C215                        38.943         0.178         0.048
  C216                        38.312         0.176         0.047
  C217                        38.206         0.175         0.047
  C218                        38.139         0.178         0.047
  C219                        37.998         0.177         0.047
  C220                        37.780         0.175         0.046
  C221                        63.429         0.179         0.046
  C222                        75.292         0.182         0.046
  C223                        87.240         0.183         0.046
  C224                        86.746         0.181         0.046
  C225                        97.388         0.183         0.045
  C226                        96.539         0.181         0.045
  C227                        89.165         0.177         0.044
  C228                       110.049         0.180         0.044
  C229                       116.828         0.187         0.044
  C230                       116.001         0.186         0.043
  C231                       111.054         0.183         0.043
  C232                       107.969         0.179         0.043
  C233                       136.520         0.175         0.042
  C234                       140.060         0.174         0.042
  C235                       150.047         0.174         0.042
  C236                       163.652         0.225         0.044
  C237                       159.962         0.219         0.044
  C238                       155.856         0.218         0.043
  C239                       153.742         0.214         0.043
  C240                       153.402         0.213         0.043
  C241                       153.200         0.212         0.043
  C242                       150.832         0.208         0.043
  C243                       137.968         0.182         0.041
  C244                       163.280         0.186         0.041
  C245                       161.032         0.182         0.041
  C246                      1023.431         0.182         0.057
  C247                       970.782         0.173         0.053
  C248                       883.617         0.166         0.049
  C249                       860.639         0.164         0.048
  C250                       845.896         0.163         0.047
  C251                       825.135         0.162         0.046
  C252                       807.895         0.161         0.046
  C253                       745.293         0.158         0.044
  C254                       657.611         0.155         0.042
  C255                       586.300         0.152         0.041
  C256                       539.454         0.151         0.040
  C257                       523.836         0.150         0.040
  C258                       492.858         0.149         0.039
  C259                       420.776         0.148         0.038
  C260                       397.363         0.147         0.038
  C261                       358.393         0.146         0.038
  C262                       249.713         0.144         0.037
  C263                       215.430         0.143         0.036
  C264                       179.826         0.141         0.036
  C265                       174.889         0.141         0.036
  C266                       162.456         0.141         0.036
  C267                       154.194         0.140         0.036
  C268                       143.903         0.139         0.035
  C269                       142.277         0.139         0.035
  C270                       137.554         0.139         0.035
  C271                       136.139         0.138         0.035
  C272                       135.366         0.138         0.035
  C273                       132.439         0.138         0.035
  C274                       130.535         0.137         0.035
  C275                       129.293         0.137         0.035
  C276                       128.371         0.137         0.035
  C277                       127.767         0.136         0.035
  C278                       127.260         0.136         0.035
  C279                       126.743         0.136         0.034
  C280                       126.450         0.135         0.034
  C281                       126.245         0.135         0.034
  C282                       125.948         0.135         0.034
  C283                       125.661         0.135         0.034
  C284                       125.342         0.135         0.034
  C285                       124.937         0.134         0.034
  C286                       124.539         0.134         0.034
  C287                       124.146         0.134         0.034
  C288                       123.819         0.133         0.034
  C289                       123.520         0.133         0.034
  C290                       123.211         0.133         0.034
  C291                       123.069         0.133         0.034
  C292                       122.734         0.132         0.034
  C293                       122.424         0.132         0.034
  C294                       122.068         0.132         0.034
  C295                       121.857         0.132         0.033
  C296                       121.624         0.131         0.033
  C297                       121.283         0.131         0.033
  C298                       120.916         0.131         0.033
  C299                       120.666         0.131         0.033
  C300                       120.271         0.130         0.033
  C301                       120.007         0.130         0.033
  C302                        82.585         0.378         0.101
  C303                        42.789         0.196         0.052
  C353                         0.000         0.000         0.000
  

  Analysis begun on:  Tue Oct 10 09:08:35 2017
  Analysis ended on:  Tue Oct 10 09:08:45 2017
  Total elapsed time: 00:00:10