
  EPA STORM WATER MANAGEMENT MODEL - VERSION 5.1 (Build 5.1.010)
  --------------------------------------------------------------

  WARNING 04: minimum elevation drop used for Conduit C199
  WARNING 04: minimum elevation drop used for Conduit C200
  WARNING 02: maximum depth increased for Node FID1955
  WARNING 02: maximum depth increased for Node FID1960
  WARNING 02: maximum depth increased for Node FID1965
  WARNING 02: maximum depth increased for Node FID1968
  WARNING 02: maximum depth increased for Node FID2244
  WARNING 02: maximum depth increased for Node FID2442
  WARNING 02: maximum depth increased for Node FID2446
  WARNING 02: maximum depth increased for Node FID5504
  WARNING 02: maximum depth increased for Node FID5527
  WARNING 02: maximum depth increased for Node AFID6926
  WARNING 02: maximum depth increased for Node AFID7376
  
  *********************************************************
  NOTE: The summary statistics displayed in this report are
  based on results found at every computational time step,  
  not just on results from each reporting time step.
  *********************************************************
  
  ****************
  Analysis Options
  ****************
  Flow Units ............... CMS
  Process Models:
    Rainfall/Runoff ........ YES
    RDII ................... NO
    Snowmelt ............... NO
    Groundwater ............ NO
    Flow Routing ........... YES
    Ponding Allowed ........ YES
    Water Quality .......... YES
  Infiltration Method ...... GREEN_AMPT
  Flow Routing Method ...... DYNWAVE
  Starting Date ............ MAY-06-2016 15:00:00
  Ending Date .............. MAY-07-2016 00:00:00
  Antecedent Dry Days ...... 0.0
  Report Time Step ......... 00:01:00
  Wet Time Step ............ 00:01:00
  Dry Time Step ............ 01:00:00
  Routing Time Step ........ 5.00 sec
  Variable Time Step ....... YES
  Maximum Trials ........... 8
  Number of Threads ........ 3
  Head Tolerance ........... 0.001500 m
  
  
  **************************        Volume         Depth
  Runoff Quantity Continuity     hectare-m            mm
  **************************     ---------       -------
  Total Precipitation ......         2.583         6.709
  Evaporation Loss .........         0.000         0.000
  Infiltration Loss ........         1.207         3.134
  Surface Runoff ...........         0.960         2.493
  Final Storage ............         0.419         1.087
  Continuity Error (%) .....        -0.068
  
  
  **************************           TSS            TP           TDP
  Runoff Quality Continuity             kg            kg            kg
  **************************    ----------    ----------    ----------
  Initial Buildup ..........         0.000         0.000         0.000
  Surface Buildup ..........      8771.037         5.397         9.546
  Wet Deposition ...........         0.000         0.000         0.000
  Sweeping Removal .........         0.000         0.000         0.000
  Infiltration Loss ........         0.000         0.000         0.000
  BMP Removal ..............         0.459         0.000         0.000
  Surface Runoff ...........      4589.082         2.799         4.719
  Remaining Buildup ........      4181.496         2.597         4.827
  Continuity Error (%) .....         0.000         0.000         0.000
  
  
  **************************        Volume        Volume
  Flow Routing Continuity        hectare-m      10^6 ltr
  **************************     ---------     ---------
  Dry Weather Inflow .......         0.000         0.000
  Wet Weather Inflow .......         0.960         9.598
  Groundwater Inflow .......         0.000         0.000
  RDII Inflow ..............         0.000         0.000
  External Inflow ..........         1.384        13.843
  External Outflow .........         1.814        18.140
  Flooding Loss ............         0.000         0.000
  Evaporation Loss .........         0.000         0.000
  Exfiltration Loss ........         0.000         0.000
  Initial Stored Volume ....         0.000         0.000
  Final Stored Volume ......         0.536         5.355
  Continuity Error (%) .....        -0.235
  
  
  **************************           TSS            TP           TDP
  Quality Routing Continuity            kg            kg            kg
  **************************    ----------    ----------    ----------
  Dry Weather Inflow .......         0.000         0.000         0.000
  Wet Weather Inflow .......      4437.886         2.791         4.695
  Groundwater Inflow .......         0.000         0.000         0.000
  RDII Inflow ..............         0.000         0.000         0.000
  External Inflow ..........       137.985         1.039         1.284
  External Outflow .........      4407.446         3.474         5.436
  Flooding Loss ............         0.000         0.000         0.000
  Exfiltration Loss ........         0.000         0.000         0.000
  Mass Reacted .............         0.000         0.000         0.000
  Initial Stored Mass ......         0.000         0.000         0.000
  Final Stored Mass ........        39.791         0.351         0.496
  Continuity Error (%) .....         2.811         0.118         0.789
  
  
  *************************
  Highest Continuity Errors
  *************************
  Node FID2824 (1.73%)
  Node J72 (1.34%)
  Node FID2449 (1.23%)
  Node J19 (1.20%)
  Node J81 (1.19%)
  
  
  ***************************
  Time-Step Critical Elements
  ***************************
  Link C241 (92.65%)
  Link C14 (6.52%)
  
  
  ********************************
  Highest Flow Instability Indexes
  ********************************
  All links are stable.
  
  
  *************************
  Routing Time Step Summary
  *************************
  Minimum Time Step           :     0.59 sec
  Average Time Step           :     0.93 sec
  Maximum Time Step           :     5.00 sec
  Percent in Steady State     :     0.00
  Average Iterations per Step :     2.01
  Percent Not Converging      :     0.03
  
  
  ***************************
  Subcatchment Runoff Summary
  ***************************
  
  --------------------------------------------------------------------------------------------------------
                            Total      Total      Total      Total      Total       Total     Peak  Runoff
                           Precip      Runon       Evap      Infil     Runoff      Runoff   Runoff   Coeff
  Subcatchment                 mm         mm         mm         mm         mm    10^6 ltr      CMS
  --------------------------------------------------------------------------------------------------------
  S0                         5.84       0.00       0.00       5.06       0.57        0.00     0.00   0.098
  S1                         5.84       0.00       0.00       2.62       2.35        0.23     0.08   0.401
  S2                         6.35       0.00       0.00       1.97       3.28        0.56     0.19   0.516
  S3                         5.84       0.00       0.00       3.84       1.47        0.05     0.04   0.252
  S4                         5.84       0.00       0.00       2.81       2.21        0.22     0.18   0.379
  S6                         6.35       0.00       0.00       1.07       3.95        0.07     0.03   0.622
  S7                         6.35       0.00       0.00       1.45       3.33        1.30     0.37   0.525
  S8                         6.35       0.00       0.00       1.07       3.96        0.00     0.00   0.624
  S9                         6.35       0.00       0.00       1.79       3.42        0.00     0.00   0.539
  S10                        6.35       0.00       0.00       1.90       3.34        0.01     0.00   0.526
  S11                        6.35       0.00       0.00       5.00       1.01        0.00     0.00   0.159
  S12                        6.35       0.00       0.00       2.13       3.17        0.00     0.00   0.500
  S13                        6.35       0.00       0.00       2.38       2.97        0.22     0.08   0.468
  S14                        6.35       0.00       0.00       4.46       1.42        0.01     0.00   0.224
  S16                        6.35       0.00       0.00       2.49       1.27        0.07     0.02   0.199
  S17                        6.35       0.00       0.00       2.08       3.20        0.61     0.20   0.503
  S18                        6.35       0.00       0.00       1.42       3.70        0.00     0.00   0.583
  S19                        6.35       0.00       0.00       3.48       2.15        0.05     0.02   0.338
  S20                        6.35       0.00       0.00       2.24       3.09        0.02     0.01   0.487
  S21                        6.35       0.00       0.00       3.51       1.04        0.56     0.13   0.164
  S22                        6.35       0.00       0.00       1.72       3.47        0.00     0.00   0.547
  S23                        6.35       0.00       0.00       3.84       1.88        0.03     0.01   0.297
  S24                        6.35       0.00       0.00       3.63       2.04        0.04     0.01   0.321
  S25                        6.35       0.00       0.00       2.45       2.92        0.04     0.01   0.460
  S27                        6.35       0.00       0.00       2.80       2.67        0.01     0.01   0.421
  S28                        5.84       0.00       0.00       5.83       0.01        0.00     0.00   0.001
  S29                        5.84       0.00       0.00       5.80       0.03        0.00     0.00   0.006
  S30                        6.35       0.00       0.00       6.33       0.02        0.00     0.00   0.003
  S31                        6.35       0.00       0.00       6.34       0.01        0.00     0.00   0.001
  S32                        6.35       0.00       0.00       4.69       1.25        0.01     0.00   0.197
  S33                        6.35       0.00       0.00       1.55       3.60        0.04     0.02   0.567
  S34                        6.35       0.00       0.00       3.13       2.18        0.77     0.25   0.343
  S35                        6.35       0.00       0.00       3.61       2.06        0.01     0.00   0.324
  S36                        6.35       0.00       0.00       5.06       0.98        0.01     0.01   0.154
  S37                        6.35       0.00       0.00       1.87       3.36        0.02     0.01   0.530
  S39                        6.35       0.00       0.00       3.76       1.94        0.29     0.10   0.306
  S40                        6.35       0.00       0.00       4.43       1.44        0.03     0.01   0.227
  S41                        6.35       0.00       0.00       2.21       3.10        0.42     0.15   0.488
  S42                        6.35       0.00       0.00       2.61       2.81        0.29     0.10   0.442
  S43                        6.35       0.00       0.00       4.75       1.20        0.02     0.01   0.190
  S44                        6.35       0.00       0.00       2.67       2.75        0.62     0.21   0.433
  S45                        8.13       0.00       0.00       4.55       2.94        0.00     0.00   0.361
  S47                        8.13       0.00       0.00       3.48       3.79        0.16     0.14   0.466
  S48                        8.13       0.00       0.00       4.13       3.29        0.01     0.01   0.405
  S49                        8.13       0.00       0.00       3.63       3.63        0.68     0.50   0.446
  S51                        8.13       0.00       0.00       6.98       0.95        0.01     0.01   0.117
  S52                        8.13       0.00       0.00       3.95       3.40        0.23     0.20   0.418
  S53                        8.13       0.00       0.00       3.80       3.50        0.49     0.38   0.430
  S54                        8.13       0.00       0.00       4.85       2.63        0.25     0.07   0.324
  S55                        8.13       0.00       0.00       3.96       3.35        0.55     0.16   0.412
  S56                        8.13       0.00       0.00       5.88       1.81        0.00     0.00   0.223
  S57                        8.13       0.00       0.00       3.43       3.78        0.04     0.01   0.465
  S58                        8.13       0.00       0.00       4.30       3.08        0.13     0.04   0.379
  S59                        8.13       0.00       0.00       7.00       0.91        0.02     0.01   0.112
  S60                        8.13       0.00       0.00       5.78       1.89        0.05     0.01   0.232
  S61                        8.13       0.00       0.00       7.15       0.79        0.01     0.00   0.097
  S62                        8.13       0.00       0.00       6.66       1.19        0.03     0.03   0.147
  S63                        6.35       0.00       0.00       5.34       0.76        0.01     0.01   0.120
  S64                        6.35       0.00       0.00       2.87       2.62        0.04     0.02   0.412
  S65                        6.35       0.00       0.00       4.23       1.59        0.27     0.09   0.250
  
  
  ****************************
  Subcatchment Washoff Summary
  ****************************
  
  --------------------------------------------------------------
                                 TSS            TP           TDP
  Subcatchment                    kg            kg            kg
  --------------------------------------------------------------
  S0                           0.220         0.000         0.000
  S1                          38.007         0.008         0.209
  S2                         118.371         0.059         0.280
  S3                          19.220         0.010         0.057
  S4                          58.851         0.032         0.182
  S6                           5.346         0.000         0.037
  S7                         400.268         0.659         0.479
  S8                           0.371         0.000         0.000
  S9                           0.428         0.000         0.000
  S10                          4.378         0.004         0.002
  S11                          0.430         0.000         0.000
  S12                          0.245         0.000         0.000
  S13                         27.567         0.006         0.147
  S14                          9.346         0.004         0.005
  S16                         57.661         0.059         0.123
  S17                        141.562         0.066         0.314
  S18                          0.440         0.000         0.000
  S19                         26.998         0.010         0.024
  S20                          8.467         0.006         0.003
  S21                       1322.985         0.620         0.242
  S22                          2.860         0.003         0.001
  S23                         20.576         0.002         0.019
  S24                         15.227         0.009         0.031
  S25                         14.355         0.001         0.015
  S27                          9.195         0.006         0.003
  S28                          0.000         0.000         0.000
  S29                          0.000         0.000         0.000
  S30                          0.000         0.000         0.000
  S31                          0.000         0.000         0.000
  S32                          4.290         0.000         0.005
  S33                         14.382         0.011         0.013
  S34                        636.213         0.501         0.217
  S35                          5.321         0.003         0.003
  S36                         11.737         0.000         0.014
  S37                          8.095         0.004         0.005
  S39                        144.921         0.050         0.208
  S40                         27.324         0.003         0.026
  S41                        110.425         0.069         0.209
  S42                         89.535         0.049         0.149
  S43                         21.254         0.000         0.024
  S44                        203.003         0.099         0.330
  S45                          0.738         0.001         0.000
  S47                         45.617         0.027         0.045
  S48                          4.395         0.004         0.001
  S49                        173.187         0.080         0.245
  S51                         11.601         0.000         0.012
  S52                         60.457         0.034         0.088
  S53                        101.454         0.062         0.207
  S54                        114.321         0.044         0.113
  S55                        158.303         0.063         0.209
  S56                          0.046         0.000         0.000
  S57                          7.527         0.000         0.011
  S58                         37.988         0.024         0.049
  S59                         25.103         0.014         0.030
  S60                         31.961         0.003         0.029
  S61                         10.577         0.003         0.007
  S62                         28.481         0.000         0.028
  S63                         13.084         0.000         0.021
  S64                         16.445         0.000         0.016
  S65                        167.924         0.084         0.233
  --------------------------------------------------------------
  System                    4589.082         2.799         4.719
  
  
  ******************
  Node Depth Summary
  ******************
  
  ---------------------------------------------------------------------------------
                                 Average  Maximum  Maximum  Time of Max    Reported
                                   Depth    Depth      HGL   Occurrence   Max Depth
  Node                 Type       Meters   Meters   Meters  days hr:min      Meters
  ---------------------------------------------------------------------------------
  FID1936              JUNCTION     0.15     0.41  1376.71     0  04:05        0.13
  FID1955              JUNCTION     0.17     0.34  1376.26     0  04:15        0.10
  FID1960              JUNCTION     0.15     0.28  1376.14     0  04:15        0.09
  FID1965              JUNCTION     0.15     0.27  1376.57     0  04:15        0.08
  FID1968              JUNCTION     0.14     0.21  1376.61     0  03:44        0.07
  FID2239              JUNCTION     0.15     0.30  1374.81     0  03:30        0.09
  FID2241              JUNCTION     0.13     0.20  1373.33     0  04:05        0.06
  FID2242              JUNCTION     0.13     0.22  1374.26     0  04:05        0.07
  FID2244              JUNCTION     0.13     0.20  1374.56     0  03:30        0.06
  FID2440              JUNCTION     0.38     0.62  1374.87     0  04:10        0.19
  FID2442              JUNCTION     0.00     0.00  1375.27     0  00:00        0.00
  FID2446              JUNCTION     0.16     0.62  1376.42     0  04:05        0.19
  FID2447              JUNCTION     0.15     0.51  1376.21     0  04:05        0.15
  FID2455              JUNCTION     0.29     0.57  1374.56     0  04:20        0.17
  FID2711              JUNCTION     0.13     0.25  1370.43     0  03:50        0.08
  FID2719              JUNCTION     0.17     0.91  1371.01     0  04:05        0.28
  FID2720              JUNCTION     0.16     0.40  1370.60     0  04:05        0.12
  FID2824              JUNCTION     0.12     0.18  1371.46     0  03:55        0.06
  FID2827              JUNCTION     0.13     0.24  1371.54     0  04:10        0.07
  FID2828              JUNCTION     0.13     0.23  1371.55     0  03:55        0.07
  FID2832              JUNCTION     0.16     0.32  1370.92     0  04:10        0.10
  FID2833              JUNCTION     0.21     0.50  1371.12     0  04:10        0.15
  FID2839              JUNCTION     0.19     0.37  1371.57     0  04:20        0.11
  FID2873              JUNCTION     0.16     0.31  1371.01     0  03:55        0.09
  FID2964              JUNCTION     0.16     0.32  1371.10     0  04:36        0.10
  FID2965              JUNCTION     0.41     0.84  1371.10     0  04:37        0.26
  FID4584              JUNCTION     0.13     0.31  1371.65     0  04:10        0.09
  FID5068              JUNCTION     0.13     0.20  1375.58     0  03:30        0.06
  FID5072              JUNCTION     0.47     0.80  1374.09     0  04:20        0.24
  FID5140              JUNCTION     0.17     0.31  1373.53     0  04:05        0.10
  FID5435              JUNCTION     0.17     0.28  1373.03     0  04:05        0.09
  FID5437              JUNCTION     0.12     0.18  1373.13     0  03:30        0.05
  FID5503              JUNCTION     0.12     0.16  1371.49     0  03:51        0.05
  FID5504              JUNCTION     0.15     0.26  1371.62     0  04:10        0.08
  FID5527              JUNCTION     0.14     0.22  1372.72     0  04:10        0.07
  FID5568              JUNCTION     0.46     0.83  1373.22     0  04:23        0.25
  FID5784              JUNCTION     0.47     0.84  1372.84     0  04:24        0.26
  FID5785              JUNCTION     0.14     0.25  1374.68     0  04:05        0.08
  AFID6926             JUNCTION     0.15     0.26  1370.06     0  04:15        0.08
  AFID7360             JUNCTION     0.47     0.92  1371.05     0  04:37        0.28
  AFID7363             JUNCTION     0.45     0.91  1371.07     0  04:37        0.28
  AFID7376             JUNCTION     0.19     0.42  1371.65     0  04:10        0.13
  AFID7377             JUNCTION     0.39     0.72  1371.40     0  04:34        0.22
  AFID7705             JUNCTION     0.48     0.59  1375.56     0  04:15        0.18
  AFID7706             JUNCTION     0.54     0.65  1375.56     0  04:15        0.20
  AFID7792             JUNCTION     0.18     0.40  1375.20     0  04:05        0.12
  AFID8223             JUNCTION     0.47     0.84  1372.84     0  04:24        0.26
  J1                   JUNCTION     0.70     0.73  1375.72     0  04:15        0.22
  FID4901              JUNCTION     0.44     0.52  1375.59     0  04:15        0.16
  J9                   JUNCTION     0.59     0.62  1375.71     0  04:15        0.19
  J11                  JUNCTION     0.44     0.47  1375.68     0  04:16        0.14
  J12                  JUNCTION     0.43     0.50  1375.62     0  04:15        0.15
  J13                  JUNCTION     0.43     0.52  1375.60     0  04:15        0.16
  FID4902              JUNCTION     0.45     0.54  1375.59     0  04:15        0.17
  J14                  JUNCTION     0.36     0.52  1375.44     0  04:05        0.16
  J15                  JUNCTION     0.34     0.55  1375.21     0  04:06        0.17
  J16                  JUNCTION     0.35     0.55  1375.19     0  04:06        0.17
  FID2449              JUNCTION     0.38     0.63  1374.94     0  04:10        0.19
  J17                  JUNCTION     0.28     0.57  1374.54     0  04:20        0.17
  J19                  JUNCTION     0.41     0.75  1374.29     0  04:22        0.23
  FID5069              JUNCTION     0.50     0.82  1374.08     0  04:21        0.25
  FID5139              JUNCTION     0.47     0.84  1373.19     0  04:22        0.26
  J24                  JUNCTION     0.47     0.84  1373.20     0  04:23        0.26
  FID4984              JUNCTION     0.49     0.86  1372.82     0  04:25        0.26
  FID2669              JUNCTION     0.35     0.71  1369.15     0  04:39        0.22
  FID2712              JUNCTION     0.37     0.76  1369.95     0  04:36        0.23
  FID2718              JUNCTION     0.37     0.77  1370.01     0  04:36        0.23
  FID2838              JUNCTION     0.54     1.00  1370.94     0  04:35        0.31
  FID2825              JUNCTION     0.59     1.08  1370.98     0  04:36        0.33
  FID2823              JUNCTION     0.64     1.13  1371.00     0  04:36        0.34
  FID5505              JUNCTION     0.53     1.01  1371.03     0  04:37        0.31
  FID5436              JUNCTION     0.49     0.84  1372.16     0  04:31        0.26
  FID5438              JUNCTION     0.42     0.78  1372.20     0  04:31        0.24
  J49                  JUNCTION     0.47     0.56  1375.58     0  04:15        0.17
  J50                  JUNCTION     0.51     0.61  1375.57     0  04:15        0.19
  J51                  JUNCTION     0.56     0.67  1375.56     0  04:15        0.20
  J52                  JUNCTION     0.57     0.68  1375.56     0  04:15        0.21
  J53                  JUNCTION     0.36     0.52  1375.44     0  04:05        0.16
  J54                  JUNCTION     0.37     0.51  1375.46     0  04:05        0.15
  J55                  JUNCTION     0.41     0.52  1375.55     0  04:15        0.16
  J56                  JUNCTION     0.39     0.50  1375.52     0  04:09        0.15
  J57                  JUNCTION     0.37     0.48  1375.50     0  04:07        0.15
  J58                  JUNCTION     0.37     0.49  1375.47     0  04:06        0.15
  FID1935              JUNCTION     0.37     0.53  1375.42     0  04:05        0.16
  J59                  JUNCTION     0.37     0.53  1375.40     0  04:05        0.16
  J60                  JUNCTION     0.36     0.52  1375.35     0  04:06        0.16
  J61                  JUNCTION     0.34     0.52  1375.29     0  04:07        0.16
  J62                  JUNCTION     0.33     0.52  1375.27     0  04:07        0.16
  J63                  JUNCTION     0.35     0.55  1375.23     0  04:06        0.17
  J64                  JUNCTION     0.33     0.54  1375.16     0  04:07        0.17
  J65                  JUNCTION     0.30     0.52  1375.10     0  04:08        0.16
  J66                  JUNCTION     0.38     0.62  1374.83     0  04:10        0.19
  J67                  JUNCTION     0.38     0.61  1374.76     0  04:11        0.19
  J68                  JUNCTION     0.36     0.59  1374.66     0  04:12        0.18
  J69                  JUNCTION     0.49     0.79  1374.52     0  04:20        0.24
  J70                  JUNCTION     0.47     0.78  1374.43     0  04:21        0.24
  J71                  JUNCTION     0.45     0.76  1374.36     0  04:21        0.23
  J72                  JUNCTION     0.48     0.80  1374.15     0  04:22        0.24
  J73                  JUNCTION     0.49     0.82  1374.05     0  04:21        0.25
  J74                  JUNCTION     0.50     0.82  1373.80     0  04:24        0.25
  J75                  JUNCTION     0.50     0.82  1373.67     0  04:26        0.25
  J76                  JUNCTION     0.47     0.84  1373.18     0  04:22        0.26
  J77                  JUNCTION     0.47     0.84  1373.05     0  04:23        0.26
  J78                  JUNCTION     0.47     0.84  1372.91     0  04:24        0.26
  J79                  JUNCTION     0.47     0.84  1372.85     0  04:24        0.26
  J80                  JUNCTION     0.40     0.75  1372.24     0  04:31        0.23
  J81                  JUNCTION     0.48     0.82  1371.81     0  04:34        0.25
  J82                  JUNCTION     0.47     0.80  1371.73     0  04:35        0.25
  J83                  JUNCTION     0.40     0.76  1371.56     0  04:35        0.23
  J84                  JUNCTION     0.36     0.69  1371.32     0  04:35        0.21
  J85                  JUNCTION     0.37     0.71  1371.24     0  04:36        0.22
  J86                  JUNCTION     0.39     0.78  1371.15     0  04:37        0.24
  J87                  JUNCTION     0.44     0.89  1371.08     0  04:37        0.27
  J88                  JUNCTION     0.52     0.99  1371.03     0  04:37        0.30
  J89                  JUNCTION     0.56     1.04  1371.02     0  04:37        0.32
  J90                  JUNCTION     0.52     0.98  1370.93     0  04:35        0.30
  J91                  JUNCTION     0.52     0.98  1370.86     0  04:36        0.30
  J92                  JUNCTION     0.52     0.98  1370.81     0  04:36        0.30
  J93                  JUNCTION     0.51     0.97  1370.70     0  04:36        0.30
  J94                  JUNCTION     0.51     0.97  1370.63     0  04:36        0.30
  J95                  JUNCTION     0.51     0.97  1370.61     0  04:36        0.30
  J96                  JUNCTION     0.51     0.96  1370.52     0  04:36        0.29
  J97                  JUNCTION     0.50     0.95  1370.45     0  04:37        0.29
  J98                  JUNCTION     0.49     0.94  1370.39     0  04:37        0.29
  J99                  JUNCTION     0.48     0.92  1370.32     0  04:37        0.28
  J100                 JUNCTION     0.47     0.90  1370.26     0  04:37        0.28
  J101                 JUNCTION     0.45     0.87  1370.19     0  04:37        0.27
  J102                 JUNCTION     0.38     0.77  1370.04     0  04:36        0.24
  J103                 JUNCTION     0.37     0.76  1369.99     0  04:36        0.23
  J104                 JUNCTION     0.37     0.75  1369.91     0  04:36        0.23
  J105                 JUNCTION     0.36     0.73  1369.85     0  04:36        0.22
  J106                 JUNCTION     0.35     0.70  1369.78     0  04:37        0.21
  J107                 JUNCTION     0.35     0.70  1369.64     0  04:37        0.21
  J108                 JUNCTION     0.35     0.70  1369.50     0  04:38        0.21
  J109                 JUNCTION     0.35     0.70  1369.39     0  04:38        0.21
  J110                 JUNCTION     0.35     0.70  1369.29     0  04:38        0.21
  J111                 JUNCTION     0.35     0.71  1369.19     0  04:39        0.22
  J112                 JUNCTION     0.35     0.71  1369.03     0  04:39        0.22
  J113                 JUNCTION     0.35     0.71  1368.93     0  04:39        0.22
  J114                 JUNCTION     0.35     0.71  1368.82     0  04:40        0.22
  J115                 JUNCTION     0.35     0.71  1368.76     0  04:40        0.22
  J116                 JUNCTION     0.35     0.71  1368.69     0  04:40        0.22
  J117                 JUNCTION     0.35     0.70  1368.58     0  04:40        0.21
  J118                 JUNCTION     0.35     0.70  1368.47     0  04:41        0.21
  J119                 JUNCTION     0.35     0.69  1368.40     0  04:41        0.21
  J120                 JUNCTION     0.37     0.68  1368.28     0  04:41        0.21
  FID2451              JUNCTION     0.38     0.61  1374.90     0  04:10        0.19
  J121                 JUNCTION     0.38     0.73  1371.47     0  04:34        0.22
  J122                 JUNCTION     0.38     0.73  1371.44     0  04:34        0.22
  FID3706              JUNCTION     0.51     0.97  1370.71     0  04:36        0.30
  FID2831              JUNCTION     0.51     0.97  1370.60     0  04:36        0.30
  FID2689              OUTFALL      0.25     0.50  1368.00     0  04:41        0.15
  
  
  *******************
  Node Inflow Summary
  *******************
  
  -------------------------------------------------------------------------------------------------
                                  Maximum  Maximum                  Lateral       Total        Flow
                                  Lateral    Total  Time of Max      Inflow      Inflow     Balance
                                   Inflow   Inflow   Occurrence      Volume      Volume       Error
  Node                 Type           CMS      CMS  days hr:min    10^6 ltr    10^6 ltr     Percent
  -------------------------------------------------------------------------------------------------
  FID1936              JUNCTION     0.198    0.198     0  04:05       0.228       0.228       0.071
  FID1955              JUNCTION     0.163    0.163     0  04:15       0.545       0.545       0.031
  FID1960              JUNCTION     0.074    0.074     0  04:15       0.249       0.249       0.068
  FID1965              JUNCTION     0.038    0.038     0  04:15       0.125       0.125       0.139
  FID1968              JUNCTION     0.011    0.011     0  04:15      0.0377      0.0377       0.463
  FID2239              JUNCTION     0.014    0.014     0  03:30      0.0391      0.0391       1.419
  FID2241              JUNCTION     0.000    0.013     0  04:05           0      0.0367       0.470
  FID2242              JUNCTION     0.013    0.013     0  04:05      0.0369      0.0369       0.493
  FID2244              JUNCTION     0.007    0.007     0  03:30      0.0143      0.0143       1.231
  FID2440              JUNCTION     0.000    1.283     0  04:08           0        15.3       0.227
  FID2442              JUNCTION     0.000    0.000     0  00:00           0           0       0.000 ltr
  FID2446              JUNCTION     0.142    0.142     0  04:05       0.161       0.161       1.038
  FID2447              JUNCTION     0.000    0.137     0  04:05           0        0.16      -0.127
  FID2455              JUNCTION     0.097    1.326     0  04:11       0.285        15.4       0.209
  FID2711              JUNCTION     0.000    0.043     0  04:05           0      0.0473       0.489
  FID2719              JUNCTION     0.181    0.181     0  04:05        0.22        0.22       0.197
  FID2720              JUNCTION     0.044    0.044     0  04:05      0.0476      0.0475       0.440
  FID2824              JUNCTION     0.000    0.004     0  03:55    0.000651     0.00974       1.761
  FID2827              JUNCTION     0.000    0.003     0  03:55    0.000737     0.00918       1.016
  FID2828              JUNCTION     0.003    0.003     0  04:10      0.0087      0.0087       3.050
  FID2832              JUNCTION     0.000    0.190     0  04:10           0       0.565       0.057
  FID2833              JUNCTION     0.190    0.190     0  04:10       0.565       0.565       0.044
  FID2839              JUNCTION     0.369    0.369     0  04:20         1.3         1.3       0.032
  FID2873              JUNCTION     0.025    0.025     0  04:10      0.0742      0.0742       0.853
  FID2964              JUNCTION     0.017    0.017     0  04:10      0.0705      0.0705       0.224
  FID2965              JUNCTION     0.000    1.767     0  04:36           0        16.5       0.276
  FID4584              JUNCTION     0.000    0.002     0  03:32           0    0.000919      17.301
  FID5068              JUNCTION     0.008    0.008     0  03:30      0.0176      0.0176       0.995
  FID5072              JUNCTION     0.099    1.454     0  04:20       0.288        15.5       0.197
  FID5140              JUNCTION     0.249    0.249     0  04:05       0.769       0.769       0.014
  FID5435              JUNCTION     0.128    0.128     0  04:05       0.558       0.558       0.033
  FID5437              JUNCTION     0.002    0.002     0  03:30      0.0048      0.0048       3.767
  FID5503              JUNCTION     0.000    0.000     0  03:28    0.000695    0.000695      33.139
  FID5504              JUNCTION     0.076    0.076     0  04:10       0.224       0.224       0.122
  FID5527              JUNCTION     0.016    0.016     0  04:10      0.0464      0.0464       0.377
  FID5568              JUNCTION     0.004    1.429     0  04:26     0.00687        15.2       0.696
  FID5784              JUNCTION     0.000    1.647     0  04:22           0        16.1       0.096
  FID5785              JUNCTION     0.000    0.014     0  04:05           0      0.0386       0.304
  AFID6926             JUNCTION     0.075    0.075     0  04:15        0.23        0.23       0.076
  AFID7360             JUNCTION     0.000    1.766     0  04:37     0.00042        16.5       0.201
  AFID7363             JUNCTION     0.000    1.766     0  04:37           0        16.5       0.099
  AFID7376             JUNCTION     0.204    0.204     0  04:10       0.614       0.615      -0.003
  AFID7377             JUNCTION     0.000    1.774     0  04:30           0        16.6       0.108
  AFID7705             JUNCTION     0.000    0.728     0  04:15           0        14.1       0.267
  AFID7706             JUNCTION     0.000    0.654     0  04:16           0        13.9       0.259
  AFID7792             JUNCTION     0.209    0.209     0  04:05       0.621       0.621       0.024
  AFID8223             JUNCTION     0.000    1.638     0  04:23           0          16       0.022
  J1                   JUNCTION     0.667    0.667     0  04:15          21          21       0.151
  FID4901              JUNCTION     0.000    0.486     0  04:19           0        13.8       0.234
  J9                   JUNCTION     0.000    0.667     0  04:15           0          21       0.303
  J11                  JUNCTION     0.000    0.666     0  04:15           0        20.9       0.523
  J12                  JUNCTION     0.007    0.672     0  04:20      0.0231        20.8       0.571
  J13                  JUNCTION    -0.220    0.680     0  04:20       -7.13        20.7      -0.191
  FID4902              JUNCTION     0.000    0.495     0  04:15           0        13.8       0.367
  J14                  JUNCTION     0.381    0.909     0  04:05       0.487        14.3       0.192
  J15                  JUNCTION     0.496    1.266     0  04:05       0.679        14.9       0.157
  J16                  JUNCTION     0.008    1.250     0  04:05     0.00949        14.9       0.158
  FID2449              JUNCTION     0.001    1.147     0  04:08     0.00137        14.8       1.248
  J17                  JUNCTION     0.145    1.409     0  04:11       0.422        15.8       0.100
  J19                  JUNCTION     0.019    1.393     0  04:21      0.0367        15.6       1.216
  FID5069              JUNCTION     0.000    1.456     0  04:20           0        15.5       0.177
  FID5139              JUNCTION     0.000    1.602     0  04:22           0        15.9       0.051
  J24                  JUNCTION     0.018    1.440     0  04:25      0.0418        15.2       0.079
  FID4984              JUNCTION     0.000    1.652     0  04:22           0        16.1       0.791
  FID2669              JUNCTION     0.000    2.097     0  04:38           0        18.3       0.064
  FID2712              JUNCTION     0.000    2.075     0  04:35           0        18.2       0.080
  FID2718              JUNCTION     0.000    2.064     0  04:35           0        18.2       0.057
  FID2838              JUNCTION     0.000    1.977     0  04:34           0        17.7       0.171
  FID2825              JUNCTION     0.000    1.786     0  04:39           0        16.5       0.312
  FID2823              JUNCTION     0.000    1.782     0  04:39           0        16.5       0.479
  FID5505              JUNCTION     0.000    1.780     0  04:37           0        16.6       0.128
  FID5436              JUNCTION     0.000    1.721     0  04:30           0        16.4       0.793
  FID5438              JUNCTION     0.000    1.642     0  04:31           0        15.9       0.144
  J49                  JUNCTION     0.000    0.499     0  04:19           0        13.7       0.587
  J50                  JUNCTION     0.000    0.505     0  04:19    0.000279        13.6       1.029
  J51                  JUNCTION     0.000    0.516     0  04:18           0        13.5       0.829
  J52                  JUNCTION     0.000    0.529     0  04:33           0        13.4       0.246
  J53                  JUNCTION     0.000    0.744     0  04:15           0        13.8       0.209
  J54                  JUNCTION     0.000    0.739     0  04:15           0        13.9       0.309
  J55                  JUNCTION     0.000    0.728     0  04:15           0        14.1       0.296
  J56                  JUNCTION     0.000    0.729     0  04:15           0          14       0.318
  J57                  JUNCTION     0.000    0.730     0  04:15           0          14       0.397
  J58                  JUNCTION     0.002    0.735     0  04:15     0.00679        13.9       0.424
  FID1935              JUNCTION     0.000    1.088     0  04:05           0        14.5       0.246
  J59                  JUNCTION     0.000    1.065     0  04:05           0        14.5       0.341
  J60                  JUNCTION     0.008    1.028     0  04:05     0.00955        14.4       0.535
  J61                  JUNCTION     0.000    0.958     0  04:06           0        14.3       0.359
  J62                  JUNCTION     0.000    0.947     0  04:07           0        14.3       0.161
  J63                  JUNCTION     0.000    0.951     0  04:07           0        14.3       0.164
  J64                  JUNCTION     0.000    1.232     0  04:05           0        14.9       0.163
  J65                  JUNCTION     0.027    1.232     0  04:05      0.0304        14.9       0.948
  J66                  JUNCTION     0.000    1.279     0  04:09           0        15.3       0.286
  J67                  JUNCTION     0.000    1.274     0  04:10           0        15.2       0.427
  J68                  JUNCTION     0.011    1.272     0  04:10      0.0232        15.2       0.463
  J69                  JUNCTION     0.000    1.407     0  04:11           0        15.8       0.448
  J70                  JUNCTION     0.006    1.402     0  04:12      0.0117        15.7       0.574
  J71                  JUNCTION     0.000    1.394     0  04:20           0        15.6       0.414
  J72                  JUNCTION     0.011    1.388     0  04:22      0.0316        15.5       1.354
  J73                  JUNCTION     0.000    1.453     0  04:20           0        15.5       0.392
  J74                  JUNCTION     0.000    1.445     0  04:20           0        15.4       0.577
  J75                  JUNCTION     0.006    1.436     0  04:22      0.0122        15.4       0.895
  J76                  JUNCTION     0.000    1.601     0  04:22           0        15.9       0.212
  J77                  JUNCTION     0.090    1.657     0  04:20       0.268        16.1       0.389
  J78                  JUNCTION     0.000    1.647     0  04:21           0        16.1       0.292
  J79                  JUNCTION     0.000    1.640     0  04:22           0          16       0.107
  J80                  JUNCTION     0.014    1.647     0  04:26      0.0309          16       0.652
  J81                  JUNCTION     0.002    1.722     0  04:30     0.00539        16.4       1.206
  J82                  JUNCTION     0.000    1.711     0  04:33           0        16.2       0.476
  J83                  JUNCTION     0.000    1.709     0  04:35           0        16.1       0.354
  J84                  JUNCTION     0.000    1.773     0  04:31           0        16.6       0.188
  J85                  JUNCTION     0.000    1.770     0  04:32           0        16.6       0.350
  J86                  JUNCTION     0.000    1.764     0  04:34           0        16.5       0.360
  J87                  JUNCTION     0.003    1.766     0  04:37     0.00833        16.5       0.154
  J88                  JUNCTION     0.000    1.767     0  04:38           0        16.4       0.233
  J89                  JUNCTION     0.000    1.780     0  04:38           0        16.6       0.352
  J90                  JUNCTION     0.000    1.977     0  04:34           0        17.7       0.121
  J91                  JUNCTION     0.000    1.976     0  04:35           0        17.7       0.168
  J92                  JUNCTION     0.000    1.975     0  04:35    3.49e-06        17.6       0.209
  J93                  JUNCTION     0.000    1.980     0  04:36           0        17.6       0.112
  J94                  JUNCTION     0.000    1.980     0  04:36    6.13e-06        17.6       0.128
  J95                  JUNCTION     0.000    1.980     0  04:37           0        17.6       0.049
  J96                  JUNCTION     0.000    2.021     0  04:35           0        18.1       0.179
  J97                  JUNCTION     0.000    2.019     0  04:35           0        18.1       0.153
  J98                  JUNCTION     0.000    2.018     0  04:36           0        18.1       0.135
  J99                  JUNCTION     0.000    2.017     0  04:37           0          18       0.115
  J100                 JUNCTION     0.000    2.017     0  04:37           0          18       0.097
  J101                 JUNCTION     0.000    2.017     0  04:38           0          18       0.112
  J102                 JUNCTION     0.000    2.018     0  04:38           0          18       0.087
  J103                 JUNCTION     0.000    2.062     0  04:35           0        18.2       0.065
  J104                 JUNCTION     0.000    2.073     0  04:35           0        18.2       0.086
  J105                 JUNCTION     0.000    2.071     0  04:35           0        18.2       0.106
  J106                 JUNCTION     0.000    2.069     0  04:36           0        18.2       0.119
  J107                 JUNCTION     0.000    2.067     0  04:36           0        18.1       0.121
  J108                 JUNCTION     0.000    2.066     0  04:37    2.17e-05        18.1       0.110
  J109                 JUNCTION     0.000    2.064     0  04:37           0        18.1       0.093
  J110                 JUNCTION     0.000    2.063     0  04:38           0        18.1       0.090
  J111                 JUNCTION     0.000    2.063     0  04:38    0.000188        18.1       0.066
  J112                 JUNCTION     0.000    2.096     0  04:38           0        18.3       0.093
  J113                 JUNCTION     0.000    2.095     0  04:39           0        18.3       0.090
  J114                 JUNCTION     0.000    2.095     0  04:39           0        18.2       0.077
  J115                 JUNCTION     0.000    2.094     0  04:39           0        18.2       0.057
  J116                 JUNCTION     0.000    2.094     0  04:40    6.19e-06        18.2       0.075
  J117                 JUNCTION     0.000    2.093     0  04:40           0        18.2       0.092
  J118                 JUNCTION     0.000    2.093     0  04:40           0        18.2       0.080
  J119                 JUNCTION     0.000    2.092     0  04:41           0        18.2       0.077
  J120                 JUNCTION     0.000    2.092     0  04:41           0        18.2       0.095
  FID2451              JUNCTION     0.000    1.135     0  04:09           0        14.7       0.227
  J121                 JUNCTION     0.006    1.710     0  04:35      0.0163          16       0.107
  J122                 JUNCTION     0.000    1.710     0  04:36    0.000741          16       0.094
  FID3706              JUNCTION     0.000    1.980     0  04:36           0        17.7       0.166
  FID2831              JUNCTION     0.000    2.022     0  04:34           0        18.1       0.106
  FID2689              OUTFALL      0.000    2.092     0  04:41           0        18.1       0.000
  
  
  **********************
  Node Surcharge Summary
  **********************
  
  Surcharging occurs when water rises above the top of the highest conduit.
  ---------------------------------------------------------------------
                                               Max. Height   Min. Depth
                                   Hours       Above Crown    Below Rim
  Node                 Type      Surcharged         Meters       Meters
  ---------------------------------------------------------------------
  FID2446              JUNCTION        0.12          0.087        0.000
  FID2719              JUNCTION        0.07          0.381        0.000
  
  
  *********************
  Node Flooding Summary
  *********************
  
  Flooding refers to all water that overflows a node, whether it ponds or not.
  --------------------------------------------------------------------------
                                                             Total   Maximum
                                 Maximum   Time of Max       Flood    Ponded
                        Hours       Rate    Occurrence      Volume     Depth
  Node                 Flooded       CMS   days hr:min    10^6 ltr    Meters
  --------------------------------------------------------------------------
  FID2446                 0.12     0.009      0  04:03       0.002     0.087
  FID2719                 0.01     0.001      0  04:05       0.000     0.000
  
  
  ***********************
  Outfall Loading Summary
  ***********************
  
  -----------------------------------------------------------------------------------------------------
                         Flow       Avg       Max       Total         Total         Total         Total
                         Freq      Flow      Flow      Volume           TSS            TP           TDP
  Outfall Node           Pcnt       CMS       CMS    10^6 ltr            kg            kg            kg
  -----------------------------------------------------------------------------------------------------
  FID2689               76.94     0.966     2.092      18.140      4341.522         3.123         4.992
  -----------------------------------------------------------------------------------------------------
  System                76.94     0.966     2.092      18.140      4341.522         3.123         4.992
  
  
  ********************
  Link Flow Summary
  ********************
  
  -----------------------------------------------------------------------------
                                 Maximum  Time of Max   Maximum    Max/    Max/
                                  |Flow|   Occurrence   |Veloc|    Full    Full
  Link                 Type          CMS  days hr:min     m/sec    Flow   Depth
  -----------------------------------------------------------------------------
  FID1123              CONDUIT     0.025     0  04:10      0.78    0.46    0.68
  FID1139              CONDUIT     0.181     0  04:05      1.66    1.43    0.91
  FID1148              CONDUIT     0.190     0  04:10      1.03    0.52    0.32
  FID1149              CONDUIT     0.190     0  04:10      2.17    0.07    0.34
  FID3364              CONDUIT     0.203     0  04:10      1.03    0.19    0.43
  FID3671              CONDUIT     0.011     0  04:14      1.06    0.09    0.20
  FID3672              CONDUIT     0.038     0  04:15      1.49    0.30    0.38
  FID3762              CONDUIT     0.074     0  04:15      1.86    0.25    0.48
  FID3765              CONDUIT     0.163     0  04:15      2.69    0.51    0.59
  FID4112              CONDUIT     0.198     0  04:05      1.66    0.38    0.43
  FID4186              CONDUIT     0.013     0  04:05      0.92    0.07    0.18
  FID4187              CONDUIT     0.013     0  04:05      1.44    0.04    0.13
  FID4201              CONDUIT     0.137     0  04:05      1.21    1.55    0.97
  FID4202              CONDUIT     0.136     0  04:05      1.36    1.09    0.82
  FID4203              CONDUIT     0.000     0  00:00      0.00    0.00    0.33
  FID4299              CONDUIT     0.008     0  03:30      0.93    0.04    0.13
  FID4372              CONDUIT     0.248     0  04:05      0.98    0.05    0.39
  FID4498              CONDUIT     0.017     0  04:10      0.46    0.04    0.69
  FID4806              CONDUIT     0.128     0  04:05      2.22    0.04    0.14
  FID4807              CONDUIT     0.002     0  03:30      0.71    0.02    0.09
  FID4882              CONDUIT     0.000     0  03:51      0.02    0.00    0.52
  FID4884              CONDUIT     0.075     0  04:10      1.81    0.03    0.17
  FID4914              CONDUIT     0.016     0  04:10      0.23    0.06    0.58
  FID4915              CONDUIT     0.003     0  03:55      0.23    0.10    0.22
  FID4916              CONDUIT     0.003     0  04:10      0.28    0.09    0.16
  FID4917              CONDUIT     0.004     0  03:55      0.83    0.01    0.54
  FID5307              CONDUIT     0.014     0  04:05      0.45    0.27    0.32
  FID5308              CONDUIT     0.007     0  03:30      1.16    0.04    0.14
  FID5312              CONDUIT     0.013     0  04:05      0.60    0.09    0.19
  FID5865              CONDUIT     0.369     0  04:20      3.28    0.18    0.37
  C9                   CHANNEL     0.667     0  04:15      0.66    0.07    0.48
  C12                  CHANNEL     0.668     0  04:20      0.46    0.29    0.57
  C13                  CHANNEL     0.680     0  04:20      0.62    0.30    0.59
  C14                  CHANNEL     0.465     0  04:34      0.69    0.20    0.61
  C52                  CONDUIT     0.208     0  04:05      1.49    0.36    0.57
  C130                 CONDUIT     0.043     0  04:05      0.64    0.88    0.43
  C131                 CONDUIT     0.043     0  04:05      1.66    0.10    0.45
  C139                 CONDUIT     0.002     0  03:32      0.10    0.02    0.56
  C191                 CHANNEL     0.499     0  04:19      0.48    0.22    0.64
  C193                 CHANNEL     0.516     0  04:18      0.38    0.23    0.74
  C194                 CHANNEL     0.529     0  04:33      0.30    0.23    0.79
  C195                 CHANNEL     0.533     0  04:33      0.35    0.10    0.63
  C196                 CONDUIT     0.488     0  04:19      0.45    0.36    0.67
  C197                 CONDUIT     0.656     0  04:15      0.24    0.31    0.88
  C198                 CHANNEL     0.728     0  04:15      0.31    0.14    0.52
  C199                 CHANNEL     0.729     0  04:15      0.32    3.18    0.61
  C200                 CHANNEL     0.730     0  04:15      0.34    2.88    0.58
  C201                 CHANNEL     0.733     0  04:15      0.35    0.22    0.49
  C202                 CHANNEL     0.739     0  04:15      0.35    0.22    0.50
  C203                 CHANNEL     0.744     0  04:15      0.35    0.22    0.51
  C204                 CHANNEL     0.749     0  04:15      0.51    0.22    0.52
  C205                 CONDUIT     0.891     0  04:05      0.35    0.62    0.64
  C206                 CHANNEL     1.065     0  04:05      0.43    0.31    0.53
  C207                 CHANNEL     1.023     0  04:05      0.42    0.30    0.53
  C208                 CHANNEL     0.958     0  04:06      0.40    0.28    0.52
  C209                 CHANNEL     0.947     0  04:07      0.40    0.28    0.52
  C210                 CHANNEL     0.951     0  04:07      0.48    0.29    0.61
  C211                 CHANNEL     0.958     0  04:08      0.47    0.35    0.56
  C212                 CONDUIT     1.243     0  04:05      0.47    0.72    0.67
  C213                 CHANNEL     1.232     0  04:05      0.60    0.45    0.56
  C214                 CHANNEL     1.214     0  04:05      0.63    0.44    0.54
  C215                 CONDUIT     1.147     0  04:08      0.41    0.66    0.70
  C216                 CONDUIT     1.123     0  04:09      0.51    0.84    0.58
  C217                 CONDUIT     1.133     0  04:09      0.43    0.45    0.45
  C218                 CHANNEL     1.279     0  04:09      0.54    0.46    0.63
  C219                 CHANNEL     1.274     0  04:10      0.54    0.46    0.62
  C220                 CHANNEL     1.268     0  04:10      0.55    0.46    0.61
  C221                 CHANNEL     1.267     0  04:11      0.57    0.46    0.59
  C222                 CONDUIT     1.322     0  04:11      0.55    0.89    0.69
  C223                 CHANNEL     1.407     0  04:11      1.38    0.18    0.60
  C224                 CHANNEL     1.400     0  04:12      0.52    0.91    0.91
  C225                 CHANNEL     1.394     0  04:20      0.53    0.90    0.90
  C226                 CHANNEL     1.389     0  04:21      0.54    0.90    0.88
  C227                 CONDUIT     1.384     0  04:23      0.42    1.12    0.94
  C228                 CHANNEL     1.394     0  04:23      0.68    0.57    0.74
  C229                 CONDUIT     1.450     0  04:20      0.35    0.25    0.54
  C230                 CHANNEL     1.453     0  04:20      0.67    0.59    0.76
  C231                 CHANNEL     1.445     0  04:20      0.67    0.59    0.76
  C232                 CHANNEL     1.436     0  04:22      0.67    0.59    0.76
  C233                 CHANNEL     1.428     0  04:26      0.66    0.58    0.76
  C234                 CONDUIT     1.437     0  04:25      0.50    0.59    0.61
  C235                 CHANNEL     1.440     0  04:25      0.66    0.59    0.78
  C236                 CHANNEL     1.601     0  04:22      0.69    0.77    0.87
  C237                 CHANNEL     1.600     0  04:22      0.68    0.77    0.87
  C238                 CHANNEL     1.647     0  04:21      0.71    0.79    0.87
  C239                 CHANNEL     1.640     0  04:22      0.71    0.78    0.87
  C240                 CHANNEL     1.637     0  04:23      0.71    0.77    0.87
  C241                 CHANNEL     1.638     0  04:23      0.76    0.78    0.87
  C242                 CONDUIT     1.645     0  04:23      0.52    0.57    0.70
  C243                 CHANNEL     1.645     0  04:25      0.75    0.79    0.83
  C244                 CHANNEL     1.641     0  04:31      0.94    0.27    0.49
  C245                 CONDUIT     1.642     0  04:31      0.64    0.45    0.63
  C246                 CHANNEL     1.716     0  04:31      0.60    0.55    0.72
  C247                 CHANNEL     1.711     0  04:33      0.61    0.55    0.71
  C248                 CHANNEL     1.709     0  04:35      0.64    0.55    0.68
  C249                 CHANNEL     1.710     0  04:36      2.75    0.69    0.70
  C250                 CONDUIT     1.710     0  04:36      0.74    0.63    0.57
  C251                 CONDUIT     1.711     0  04:36      0.75    0.63    0.57
  C252                 CHANNEL     1.773     0  04:31      2.04    0.71    0.66
  C253                 CHANNEL     1.770     0  04:32      0.84    0.40    0.66
  C254                 CHANNEL     1.764     0  04:34      1.55    0.40    0.71
  C255                 CHANNEL     1.761     0  04:36      1.84    0.40    0.77
  C256                 CHANNEL     1.766     0  04:37      1.47    0.40    0.82
  C257                 CHANNEL     1.766     0  04:37      0.62    0.40    0.85
  C258                 CONDUIT     1.766     0  04:37      0.61    0.65    0.71
  C259                 CHANNEL     1.767     0  04:38      1.03    0.40    0.90
  C260                 CHANNEL     1.768     0  04:38      0.52    0.40    0.94
  C261                 CHANNEL     1.780     0  04:38      2.01    0.40    0.96
  C262                 CHANNEL     1.782     0  04:39      0.99    0.41    0.99
  C263                 CHANNEL     1.785     0  04:39      0.52    0.41    0.70
  C264                 CONDUIT     1.788     0  04:39      0.57    0.93    0.76
  C265                 CHANNEL     1.977     0  04:34      0.61    0.46    0.63
  C266                 CHANNEL     1.976     0  04:35      0.65    0.39    0.68
  C267                 CHANNEL     1.975     0  04:35      0.65    0.39    0.68
  C268                 CHANNEL     1.975     0  04:36      0.65    0.39    0.68
  C269                 CHANNEL     1.980     0  04:36      0.89    0.39    0.68
  C270                 CHANNEL     1.980     0  04:36      0.65    0.39    0.68
  C271                 CHANNEL     1.980     0  04:37      0.65    0.39    0.68
  C272                 CHANNEL     1.981     0  04:37      0.65    0.39    0.68
  C273                 CHANNEL     2.021     0  04:35      0.67    0.40    0.68
  C274                 CHANNEL     2.019     0  04:35      0.68    0.40    0.67
  C275                 CHANNEL     2.018     0  04:36      0.70    0.40    0.66
  C276                 CHANNEL     2.017     0  04:37      0.72    0.40    0.65
  C277                 CHANNEL     2.017     0  04:37      0.75    0.40    0.64
  C278                 CHANNEL     2.017     0  04:38      0.79    0.40    0.62
  C279                 CHANNEL     2.018     0  04:38      0.91    0.40    0.57
  C280                 CHANNEL     2.020     0  04:38      0.75    0.69    0.78
  C281                 CHANNEL     2.062     0  04:35      0.77    0.70    0.78
  C282                 CHANNEL     2.060     0  04:35      0.77    0.70    0.77
  C283                 CHANNEL     2.073     0  04:35      0.79    0.71    0.76
  C284                 CHANNEL     2.071     0  04:35      0.81    0.70    0.75
  C285                 CHANNEL     2.069     0  04:36      0.84    0.70    0.73
  C286                 CHANNEL     2.067     0  04:36      0.94    0.50    0.72
  C287                 CHANNEL     2.066     0  04:37      0.94    0.50    0.72
  C288                 CHANNEL     2.064     0  04:37      0.94    0.50    0.72
  C289                 CHANNEL     2.063     0  04:38      0.94    0.50    0.72
  C290                 CHANNEL     2.063     0  04:38      0.93    0.50    0.72
  C291                 CHANNEL     2.062     0  04:38      0.93    0.50    0.72
  C292                 CHANNEL     2.096     0  04:38      0.94    0.51    0.72
  C293                 CHANNEL     2.095     0  04:39      0.94    0.51    0.72
  C294                 CHANNEL     2.095     0  04:39      0.95    0.51    0.72
  C295                 CHANNEL     2.094     0  04:39      0.95    0.51    0.72
  C296                 CHANNEL     2.094     0  04:40      0.95    0.51    0.72
  C297                 CHANNEL     2.093     0  04:40      0.95    0.51    0.72
  C298                 CHANNEL     2.093     0  04:40      0.95    0.51    0.71
  C299                 CHANNEL     2.092     0  04:41      0.96    0.51    0.71
  C300                 CHANNEL     2.092     0  04:41      0.98    0.51    0.70
  C301                 CHANNEL     2.092     0  04:41      1.49    0.37    0.46
  C302                 CHANNEL     0.666     0  04:15      0.57    0.10    0.43
  C303                 CHANNEL     0.505     0  04:19      0.43    0.22    0.68
  C353                 CONDUIT     0.075     0  04:15      1.75    0.03    0.12
  
  
  ***************************
  Flow Classification Summary
  ***************************
  
  -------------------------------------------------------------------------------------
                      Adjusted    ---------- Fraction of Time in Flow Class ---------- 
                       /Actual         Up    Down  Sub   Sup   Up    Down  Norm  Inlet 
  Conduit               Length    Dry  Dry   Dry   Crit  Crit  Crit  Crit  Ltd   Ctrl  
  -------------------------------------------------------------------------------------
  FID1123                 1.00   0.18  0.00  0.00  0.30  0.00  0.00  0.52  0.20  0.00
  FID1139                 1.00   0.16  0.00  0.00  0.19  0.00  0.00  0.65  0.13  0.00
  FID1148                 1.00   0.14  0.00  0.00  0.53  0.00  0.00  0.33  0.00  0.00
  FID1149                 1.00   0.15  0.00  0.00  0.46  0.05  0.00  0.34  0.38  0.00
  FID3364                 1.00   0.14  0.01  0.00  0.86  0.00  0.00  0.00  0.70  0.00
  FID3671                 1.00   0.22  0.00  0.00  0.00  0.00  0.00  0.78  0.00  0.00
  FID3672                 1.00   0.18  0.00  0.00  0.00  0.00  0.00  0.82  0.00  0.00
  FID3762                 1.00   0.01  0.16  0.00  0.71  0.12  0.00  0.00  0.67  0.00
  FID3765                 1.00   0.01  0.16  0.00  0.66  0.17  0.00  0.00  0.67  0.00
  FID4112                 1.00   0.16  0.00  0.00  0.00  0.00  0.00  0.84  0.00  0.00
  FID4186                 1.00   0.22  0.00  0.00  0.40  0.11  0.00  0.27  0.00  0.00
  FID4187                 1.00   0.23  0.00  0.00  0.00  0.00  0.00  0.77  0.00  0.00
  FID4201                 1.00   0.16  0.00  0.00  0.78  0.00  0.00  0.06  0.45  0.00
  FID4202                 1.00   0.19  0.00  0.00  0.00  0.00  0.00  0.81  0.00  0.00
  FID4203                 1.00   0.17  0.83  0.00  0.00  0.00  0.00  0.00  0.00  0.00
  FID4299                 1.00   0.23  0.00  0.00  0.00  0.00  0.00  0.77  0.00  0.00
  FID4372                 1.00   0.07  0.11  0.00  0.82  0.00  0.00  0.00  0.67  0.00
  FID4498                 1.00   0.14  0.00  0.00  0.85  0.00  0.00  0.01  0.58  0.00
  FID4806                 1.00   0.17  0.00  0.00  0.00  0.00  0.00  0.83  0.00  0.00
  FID4807                 1.00   0.24  0.00  0.00  0.00  0.00  0.00  0.76  0.00  0.00
  FID4882                 1.00   0.24  0.29  0.00  0.30  0.00  0.00  0.17  0.59  0.00
  FID4884                 1.00   0.15  0.00  0.00  0.19  0.03  0.00  0.63  0.15  0.00
  FID4914                 1.00   0.11  0.07  0.00  0.81  0.00  0.00  0.00  0.66  0.00
  FID4915                 1.00   0.24  0.00  0.00  0.76  0.00  0.00  0.01  0.49  0.00
  FID4916                 1.00   0.24  0.00  0.00  0.58  0.00  0.00  0.18  0.10  0.00
  FID4917                 1.00   0.25  0.00  0.00  0.42  0.00  0.00  0.33  0.31  0.00
  FID5307                 1.00   0.22  0.00  0.00  0.75  0.00  0.00  0.03  0.49  0.00
  FID5308                 1.00   0.23  0.00  0.00  0.00  0.00  0.00  0.77  0.00  0.00
  FID5312                 1.00   0.23  0.00  0.00  0.00  0.00  0.00  0.77  0.00  0.00
  FID5865                 1.00   0.14  0.00  0.00  0.16  0.13  0.00  0.57  0.20  0.00
  C9                      1.00   0.00  0.00  0.00  1.00  0.00  0.00  0.00  0.00  0.00
  C12                     1.00   0.00  0.00  0.00  1.00  0.00  0.00  0.00  0.00  0.00
  C13                     1.00   0.00  0.00  0.00  1.00  0.00  0.00  0.00  0.00  0.00
  C14                     1.00   0.00  0.00  0.00  1.00  0.00  0.00  0.00  0.00  0.00
  C52                     1.00   0.04  0.14  0.00  0.82  0.01  0.00  0.00  0.68  0.00
  C130                    1.00   0.22  0.00  0.00  0.54  0.00  0.00  0.24  0.00  0.00
  C131                    1.00   0.24  0.00  0.00  0.37  0.01  0.00  0.38  0.28  0.00
  C139                    1.00   0.14  0.46  0.00  0.39  0.00  0.01  0.00  0.49  0.00
  C191                    1.00   0.00  0.00  0.00  1.00  0.00  0.00  0.00  0.00  0.00
  C193                    1.00   0.00  0.00  0.00  1.00  0.00  0.00  0.00  0.00  0.00
  C194                    1.00   0.00  0.00  0.00  1.00  0.00  0.00  0.00  0.00  0.00
  C195                    1.00   0.01  0.00  0.00  0.99  0.00  0.00  0.00  0.00  0.00
  C196                    1.00   0.00  0.00  0.00  1.00  0.00  0.00  0.00  0.00  0.00
  C197                    1.00   0.01  0.00  0.00  0.99  0.00  0.00  0.00  0.00  0.00
  C198                    1.00   0.01  0.00  0.00  0.99  0.00  0.00  0.00  0.00  0.00
  C199                    1.00   0.01  0.00  0.00  0.99  0.00  0.00  0.00  0.00  0.00
  C200                    1.00   0.01  0.00  0.00  0.99  0.00  0.00  0.00  0.00  0.00
  C201                    1.00   0.01  0.00  0.00  0.99  0.00  0.00  0.00  0.00  0.00
  C202                    1.00   0.01  0.00  0.00  0.99  0.00  0.00  0.00  0.00  0.00
  C203                    1.00   0.01  0.00  0.00  0.99  0.00  0.00  0.00  0.00  0.00
  C204                    1.00   0.01  0.00  0.00  0.99  0.00  0.00  0.00  0.00  0.00
  C205                    1.00   0.02  0.00  0.00  0.98  0.00  0.00  0.00  0.00  0.00
  C206                    1.00   0.02  0.00  0.00  0.98  0.00  0.00  0.00  0.00  0.00
  C207                    1.00   0.02  0.00  0.00  0.98  0.00  0.00  0.00  0.00  0.00
  C208                    1.00   0.02  0.00  0.00  0.98  0.00  0.00  0.00  0.00  0.00
  C209                    1.00   0.02  0.00  0.00  0.98  0.00  0.00  0.00  0.00  0.00
  C210                    1.00   0.02  0.00  0.00  0.98  0.00  0.00  0.00  0.00  0.00
  C211                    1.00   0.02  0.00  0.00  0.98  0.00  0.00  0.00  0.00  0.00
  C212                    1.00   0.02  0.00  0.00  0.98  0.00  0.00  0.00  0.00  0.00
  C213                    1.00   0.02  0.00  0.00  0.98  0.00  0.00  0.00  0.00  0.00
  C214                    1.00   0.02  0.00  0.00  0.98  0.00  0.00  0.00  0.00  0.00
  C215                    1.00   0.03  0.00  0.00  0.97  0.00  0.00  0.00  0.71  0.00
  C216                    1.00   0.03  0.00  0.00  0.97  0.00  0.00  0.00  0.00  0.00
  C217                    1.00   0.03  0.00  0.00  0.97  0.00  0.00  0.00  0.00  0.00
  C218                    1.00   0.03  0.00  0.00  0.97  0.00  0.00  0.00  0.00  0.00
  C219                    1.00   0.03  0.00  0.00  0.97  0.00  0.00  0.00  0.00  0.00
  C220                    1.00   0.04  0.00  0.00  0.96  0.00  0.00  0.00  0.00  0.00
  C221                    1.00   0.04  0.00  0.00  0.96  0.00  0.00  0.00  0.00  0.00
  C222                    1.00   0.04  0.00  0.00  0.96  0.00  0.00  0.00  0.00  0.00
  C223                    1.00   0.04  0.00  0.00  0.96  0.00  0.00  0.00  0.01  0.00
  C224                    1.00   0.04  0.00  0.00  0.96  0.00  0.00  0.00  0.00  0.00
  C225                    1.00   0.04  0.00  0.00  0.96  0.00  0.00  0.00  0.00  0.00
  C226                    1.00   0.04  0.00  0.00  0.96  0.00  0.00  0.00  0.00  0.00
  C227                    1.00   0.05  0.00  0.00  0.95  0.00  0.00  0.00  0.00  0.00
  C228                    1.00   0.05  0.00  0.00  0.95  0.00  0.00  0.00  0.00  0.00
  C229                    1.00   0.05  0.00  0.00  0.95  0.00  0.00  0.00  0.00  0.00
  C230                    1.00   0.05  0.00  0.00  0.95  0.00  0.00  0.00  0.00  0.00
  C231                    1.00   0.06  0.00  0.00  0.94  0.00  0.00  0.00  0.01  0.00
  C232                    1.00   0.06  0.00  0.00  0.94  0.00  0.00  0.00  0.00  0.00
  C233                    1.00   0.06  0.00  0.00  0.94  0.00  0.00  0.00  0.03  0.00
  C234                    1.00   0.06  0.00  0.00  0.94  0.00  0.00  0.00  0.00  0.00
  C235                    1.00   0.06  0.00  0.00  0.94  0.00  0.00  0.00  0.00  0.00
  C236                    1.00   0.06  0.00  0.00  0.94  0.00  0.00  0.00  0.00  0.00
  C237                    1.00   0.07  0.00  0.00  0.93  0.00  0.00  0.00  0.00  0.00
  C238                    1.00   0.07  0.00  0.00  0.93  0.00  0.00  0.00  0.00  0.00
  C239                    1.00   0.07  0.00  0.00  0.93  0.00  0.00  0.00  0.00  0.00
  C240                    1.00   0.07  0.00  0.00  0.93  0.00  0.00  0.00  0.00  0.00
  C241                    1.00   0.07  0.00  0.00  0.93  0.00  0.00  0.00  0.00  0.00
  C242                    1.00   0.07  0.00  0.00  0.93  0.00  0.00  0.00  0.00  0.00
  C243                    1.00   0.07  0.00  0.00  0.93  0.00  0.00  0.00  0.00  0.00
  C244                    1.00   0.07  0.00  0.00  0.92  0.01  0.00  0.00  0.00  0.00
  C245                    1.00   0.08  0.00  0.00  0.92  0.00  0.00  0.00  0.00  0.00
  C246                    1.00   0.08  0.00  0.00  0.92  0.00  0.00  0.00  0.51  0.00
  C247                    1.00   0.09  0.00  0.00  0.91  0.00  0.00  0.00  0.00  0.00
  C248                    1.00   0.10  0.00  0.00  0.90  0.00  0.00  0.00  0.00  0.00
  C249                    1.00   0.11  0.00  0.00  0.89  0.00  0.00  0.00  0.00  0.00
  C250                    1.00   0.12  0.00  0.00  0.88  0.00  0.00  0.00  0.00  0.00
  C251                    1.00   0.13  0.00  0.00  0.87  0.00  0.00  0.00  0.00  0.00
  C252                    1.00   0.13  0.00  0.00  0.87  0.00  0.00  0.00  0.00  0.00
  C253                    1.00   0.13  0.00  0.00  0.87  0.00  0.00  0.00  0.00  0.00
  C254                    1.00   0.14  0.00  0.00  0.86  0.00  0.00  0.00  0.04  0.00
  C255                    1.00   0.14  0.00  0.00  0.86  0.00  0.00  0.00  0.00  0.00
  C256                    1.00   0.13  0.01  0.00  0.86  0.00  0.00  0.00  0.00  0.00
  C257                    1.00   0.13  0.00  0.00  0.87  0.00  0.00  0.00  0.00  0.00
  C258                    1.00   0.13  0.02  0.00  0.85  0.00  0.00  0.00  0.00  0.00
  C259                    1.00   0.13  0.00  0.00  0.87  0.00  0.00  0.00  0.00  0.00
  C260                    1.00   0.15  0.01  0.00  0.84  0.00  0.00  0.00  0.00  0.00
  C261                    1.00   0.15  0.00  0.00  0.85  0.00  0.00  0.00  0.00  0.00
  C262                    1.00   0.15  0.00  0.00  0.85  0.00  0.00  0.00  0.00  0.00
  C263                    1.00   0.15  0.00  0.00  0.85  0.00  0.00  0.00  0.00  0.00
  C264                    1.00   0.14  0.00  0.00  0.86  0.00  0.00  0.00  0.00  0.00
  C265                    1.00   0.14  0.03  0.00  0.83  0.00  0.00  0.00  0.00  0.00
  C266                    1.00   0.17  0.00  0.00  0.83  0.00  0.00  0.00  0.00  0.00
  C267                    1.00   0.17  0.00  0.00  0.83  0.00  0.00  0.00  0.00  0.00
  C268                    1.00   0.18  0.00  0.00  0.82  0.00  0.00  0.00  0.00  0.00
  C269                    1.00   0.18  0.00  0.00  0.82  0.00  0.00  0.00  0.00  0.00
  C270                    1.00   0.18  0.00  0.00  0.82  0.00  0.00  0.00  0.00  0.00
  C271                    1.00   0.16  0.02  0.00  0.82  0.00  0.00  0.00  0.00  0.00
  C272                    1.00   0.15  0.01  0.00  0.84  0.00  0.00  0.00  0.00  0.00
  C273                    1.00   0.15  0.00  0.00  0.85  0.00  0.00  0.00  0.00  0.00
  C274                    1.00   0.16  0.00  0.00  0.84  0.00  0.00  0.00  0.00  0.00
  C275                    1.00   0.19  0.00  0.00  0.81  0.00  0.00  0.00  0.00  0.00
  C276                    1.00   0.19  0.00  0.00  0.81  0.00  0.00  0.00  0.00  0.00
  C277                    1.00   0.19  0.00  0.00  0.81  0.00  0.00  0.00  0.00  0.00
  C278                    1.00   0.20  0.00  0.00  0.80  0.00  0.00  0.00  0.00  0.00
  C279                    1.00   0.20  0.00  0.00  0.80  0.00  0.00  0.00  0.00  0.00
  C280                    1.00   0.16  0.04  0.00  0.80  0.00  0.00  0.00  0.00  0.00
  C281                    1.00   0.16  0.00  0.00  0.84  0.00  0.00  0.00  0.01  0.00
  C282                    1.00   0.17  0.00  0.00  0.83  0.00  0.00  0.00  0.00  0.00
  C283                    1.00   0.18  0.00  0.00  0.82  0.00  0.00  0.00  0.00  0.00
  C284                    1.00   0.20  0.00  0.00  0.80  0.00  0.00  0.00  0.00  0.00
  C285                    1.00   0.21  0.00  0.00  0.79  0.00  0.00  0.00  0.00  0.00
  C286                    1.00   0.21  0.00  0.00  0.79  0.00  0.00  0.00  0.25  0.00
  C287                    1.00   0.17  0.04  0.00  0.79  0.00  0.00  0.00  0.23  0.00
  C288                    1.00   0.17  0.00  0.00  0.83  0.00  0.00  0.00  0.00  0.00
  C289                    1.00   0.21  0.00  0.00  0.79  0.00  0.00  0.00  0.00  0.00
  C290                    1.00   0.15  0.06  0.00  0.78  0.00  0.00  0.00  0.00  0.00
  C291                    1.00   0.15  0.00  0.00  0.85  0.00  0.00  0.00  0.04  0.00
  C292                    1.00   0.18  0.00  0.00  0.82  0.00  0.00  0.00  0.00  0.00
  C293                    1.00   0.18  0.00  0.00  0.82  0.00  0.00  0.00  0.00  0.00
  C294                    1.00   0.20  0.00  0.00  0.80  0.00  0.00  0.00  0.00  0.00
  C295                    1.00   0.22  0.00  0.00  0.78  0.00  0.00  0.00  0.00  0.00
  C296                    1.00   0.22  0.00  0.00  0.78  0.00  0.00  0.00  0.00  0.00
  C297                    1.00   0.22  0.00  0.00  0.78  0.00  0.00  0.00  0.00  0.00
  C298                    1.00   0.23  0.00  0.00  0.77  0.00  0.00  0.00  0.00  0.00
  C299                    1.00   0.23  0.00  0.00  0.77  0.00  0.00  0.00  0.00  0.00
  C300                    1.00   0.23  0.00  0.00  0.77  0.00  0.00  0.00  0.00  0.00
  C301                    1.00   0.23  0.00  0.00  0.77  0.00  0.00  0.00  0.00  0.00
  C302                    1.00   0.00  0.00  0.00  1.00  0.00  0.00  0.00  0.00  0.00
  C303                    1.00   0.00  0.00  0.00  1.00  0.00  0.00  0.00  0.00  0.00
  C353                    1.00   0.18  0.00  0.00  0.00  0.00  0.00  0.82  0.00  0.00
  
  
  *************************
  Conduit Surcharge Summary
  *************************
  
  ----------------------------------------------------------------------------
                                                           Hours        Hours 
                         --------- Hours Full --------   Above Full   Capacity
  Conduit                Both Ends  Upstream  Dnstream   Normal Flow   Limited
  ----------------------------------------------------------------------------
  FID1123                     0.01      0.01      0.40      0.01         0.01
  FID1139                     0.01      0.07      0.01      0.10         0.01
  FID4201                     0.01      0.12      0.01      0.20         0.01
  FID4202                     0.01      0.01      0.01      0.08         0.01
  FID4498                     0.01      0.01      1.42      0.01         0.01
  FID4882                     0.01      0.01      1.95      0.01         0.01
  FID4914                     0.01      0.01      1.99      0.01         0.01
  FID4917                     0.01      0.01      0.87      0.01         0.01
  C199                        0.01      0.01      0.01      8.53         0.01
  C200                        0.01      0.01      0.01      8.47         0.01
  C227                        0.01      0.01      0.01      0.53         0.01
  C262                        0.01      0.01      0.74      0.01         0.01
  
  
  ***************************
  Link Pollutant Load Summary
  ***************************
  
  --------------------------------------------------------------
                                 TSS            TP           TDP
  Link                            kg            kg            kg
  --------------------------------------------------------------
  FID1123                      1.134         0.000         0.031
  FID1139                     44.762         0.031         0.174
  FID1148                    106.152         0.059         0.273
  FID1149                     98.274         0.059         0.268
  FID3364                    135.912         0.066         0.308
  FID3671                      6.731         0.000         0.010
  FID3672                     34.103         0.024         0.046
  FID3762                    113.674         0.044         0.113
  FID3765                    152.135         0.063         0.207
  FID4112                     54.520         0.033         0.085
  FID4186                     13.742         0.001         0.015
  FID4187                     13.328         0.001         0.014
  FID4201                     41.226         0.025         0.042
  FID4202                     40.200         0.024         0.040
  FID4203                      0.000         0.000         0.000
  FID4299                      7.288         0.004         0.004
  FID4372                    646.294         0.507         0.220
  FID4498                     57.808         0.061         0.125
  FID4806                   1320.663         0.613         0.241
  FID4807                      0.000         0.001         0.000
  FID4882                      0.000         0.000         0.000
  FID4884                     18.130         0.006         0.142
  FID4914                     26.831         0.010         0.023
  FID4915                      1.144         0.002         0.001
  FID4916                      0.138         0.000         0.001
  FID4917                      0.059         0.000         0.001
  FID5307                      9.474         0.009         0.027
  FID5308                      8.457         0.006         0.003
  FID5312                      8.240         0.008         0.024
  FID5865                    276.500         0.659         0.479
  C9                         169.665         1.038         1.308
  C12                        168.582         1.022         1.288
  C13                        192.360         1.030         1.313
  C14                        126.059         0.679         0.869
  C52                        190.079         0.099         0.325
  C130                        10.270         0.009         0.052
  C131                         9.215         0.009         0.048
  C139                         2.637         0.001         0.002
  C191                       166.613         0.696         0.917
  C193                       166.426         0.678         0.893
  C194                       164.287         0.673         0.890
  C195                       163.901         0.671         0.888
  C196                       160.133         0.700         0.911
  C197                       316.096         0.731         1.091
  C198                       429.549         0.772         1.201
  C199                       431.429         0.770         1.199
  C200                       430.359         0.766         1.195
  C201                       435.277         0.762         1.190
  C202                       442.097         0.761         1.191
  C203                       441.196         0.758         1.187
  C204                       439.757         0.756         1.185
  C205                       541.604         0.817         1.387
  C206                       595.269         0.847         1.469
  C207                       597.607         0.845         1.467
  C208                       609.405         0.841         1.473
  C209                       603.264         0.835         1.465
  C210                       603.634         0.834         1.463
  C211                       602.635         0.832         1.460
  C212                       770.539         0.910         1.701
  C213                       774.175         0.912         1.700
  C214                       774.213         0.910         1.698
  C215                       838.410         0.911         1.734
  C216                       803.306         0.892         1.703
  C217                       844.188         0.914         1.740
  C218                      1032.704         1.010         2.061
  C219                      1035.821         1.008         2.060
  C220                      1037.321         1.005         2.056
  C221                      1060.493         1.001         2.076
  C222                      1137.750         1.043         2.210
  C223                      1251.019         1.113         2.419
  C224                      1265.329         1.115         2.428
  C225                      1269.622         1.106         2.434
  C226                      1268.928         1.102         2.429
  C227                      1325.796         1.103         2.459
  C228                      1305.642         1.079         2.435
  C229                      1445.848         1.127         2.638
  C230                      1451.087         1.128         2.639
  C231                      1468.753         1.131         2.649
  C232                      1458.298         1.122         2.633
  C233                      1500.639         1.125         2.663
  C234                      1466.433         1.109         2.625
  C235                      1479.035         1.118         2.636
  C236                      2123.304         1.623         2.854
  C237                      2144.582         1.631         2.859
  C238                      2310.668         1.711         3.086
  C239                      2298.276         1.702         3.076
  C240                      2289.233         1.696         3.070
  C241                      2297.275         1.701         3.072
  C242                      2311.865         1.711         3.098
  C243                      2381.511         1.735         3.130
  C244                      2338.978         1.698         3.111
  C245                      2341.216         1.698         3.109
  C246                      3760.434         2.358         3.370
  C247                      3679.765         2.305         3.357
  C248                      3714.464         2.317         3.358
  C249                      3664.959         2.290         3.342
  C250                      3667.070         2.293         3.343
  C251                      3669.215         2.293         3.341
  C252                      3801.074         2.356         3.647
  C253                      3827.150         2.366         3.651
  C254                      3842.374         2.370         3.650
  C255                      3836.746         2.364         3.643
  C256                      3878.980         2.415         3.759
  C257                      3866.954         2.409         3.756
  C258                      3867.891         2.408         3.754
  C259                      3896.994         2.418         3.758
  C260                      3867.285         2.404         3.748
  C261                      3891.730         2.412         3.889
  C262                      3927.528         2.421         3.890
  C263                      3898.994         2.406         3.877
  C264                      3891.948         2.400         3.871
  C265                      4158.147         3.052         4.343
  C266                      4173.333         3.060         4.347
  C267                      4168.731         3.056         4.342
  C268                      4184.176         3.063         4.345
  C269                      4156.926         3.045         4.361
  C270                      4173.505         3.053         4.367
  C271                      4158.689         3.043         4.358
  C272                      4158.128         3.041         4.361
  C273                      4268.117         3.108         4.630
  C274                      4261.835         3.105         4.619
  C275                      4257.973         3.101         4.612
  C276                      4256.360         3.099         4.608
  C277                      4252.926         3.096         4.604
  C278                      4252.355         3.095         4.601
  C279                      4254.294         3.095         4.600
  C280                      4249.351         3.091         4.596
  C281                      4290.327         3.121         4.766
  C282                      4292.225         3.122         4.766
  C283                      4300.971         3.130         4.812
  C284                      4301.831         3.130         4.811
  C285                      4303.512         3.129         4.810
  C286                      4305.803         3.130         4.809
  C287                      4305.842         3.128         4.807
  C288                      4304.125         3.126         4.804
  C289                      4303.618         3.125         4.801
  C290                      4303.941         3.124         4.800
  C291                      4300.091         3.122         4.796
  C292                      4343.772         3.131         5.008
  C293                      4343.520         3.130         5.006
  C294                      4345.376         3.130         5.005
  C295                      4341.652         3.127         5.001
  C296                      4342.780         3.127         5.001
  C297                      4345.556         3.128         5.001
  C298                      4345.821         3.127         5.000
  C299                      4342.804         3.125         4.996
  C300                      4345.069         3.125         4.996
  C301                      4341.522         3.123         4.992
  C302                       169.132         1.033         1.303
  C303                       166.908         0.689         0.908
  C353                        37.554         0.008         0.208
  

  Analysis begun on:  Tue Oct 10 17:34:45 2017
  Analysis ended on:  Tue Oct 10 17:34:59 2017
  Total elapsed time: 00:00:14