
  EPA STORM WATER MANAGEMENT MODEL - VERSION 5.1 (Build 5.1.010)
  --------------------------------------------------------------

  WARNING 04: minimum elevation drop used for Conduit C199
  WARNING 04: minimum elevation drop used for Conduit C200
  WARNING 02: maximum depth increased for Node FID1955
  WARNING 02: maximum depth increased for Node FID1960
  WARNING 02: maximum depth increased for Node FID1965
  WARNING 02: maximum depth increased for Node FID1968
  WARNING 02: maximum depth increased for Node FID2244
  WARNING 02: maximum depth increased for Node FID2442
  WARNING 02: maximum depth increased for Node FID2446
  WARNING 02: maximum depth increased for Node FID5504
  WARNING 02: maximum depth increased for Node FID5527
  WARNING 02: maximum depth increased for Node AFID6926
  WARNING 02: maximum depth increased for Node AFID7376
  
  *********************************************************
  NOTE: The summary statistics displayed in this report are
  based on results found at every computational time step,  
  not just on results from each reporting time step.
  *********************************************************
  
  ****************
  Analysis Options
  ****************
  Flow Units ............... CMS
  Process Models:
    Rainfall/Runoff ........ YES
    RDII ................... NO
    Snowmelt ............... NO
    Groundwater ............ NO
    Flow Routing ........... YES
    Ponding Allowed ........ YES
    Water Quality .......... YES
  Infiltration Method ...... GREEN_AMPT
  Flow Routing Method ...... DYNWAVE
  Starting Date ............ MAY-06-2016 15:00:00
  Ending Date .............. MAY-07-2016 00:00:00
  Antecedent Dry Days ...... 0.0
  Report Time Step ......... 00:01:00
  Wet Time Step ............ 00:01:00
  Dry Time Step ............ 01:00:00
  Routing Time Step ........ 5.00 sec
  Variable Time Step ....... YES
  Maximum Trials ........... 8
  Number of Threads ........ 3
  Head Tolerance ........... 0.001500 m
  
  
  **************************        Volume         Depth
  Runoff Quantity Continuity     hectare-m            mm
  **************************     ---------       -------
  Total Precipitation ......         2.583         6.709
  Evaporation Loss .........         0.000         0.000
  Infiltration Loss ........         1.145         2.973
  Surface Runoff ...........         0.821         2.131
  Final Storage ............         0.618         1.605
  Continuity Error (%) .....         0.009
  
  
  **************************           TSS            TP           TDP
  Runoff Quality Continuity             kg            kg            kg
  **************************    ----------    ----------    ----------
  Initial Buildup ..........         0.000         0.000         0.000
  Surface Buildup ..........     13099.335        10.799         8.781
  Wet Deposition ...........         0.000         0.000         0.000
  Sweeping Removal .........         0.000         0.000         0.000
  Infiltration Loss ........         0.000         0.000         0.000
  BMP Removal ..............         0.587         0.000         0.000
  Surface Runoff ...........      5865.836         4.249         2.307
  Remaining Buildup ........      7232.913         6.550         6.474
  Continuity Error (%) .....         0.000         0.000         0.000
  
  
  **************************        Volume        Volume
  Flow Routing Continuity        hectare-m      10^6 ltr
  **************************     ---------     ---------
  Dry Weather Inflow .......         0.000         0.000
  Wet Weather Inflow .......         0.821         8.206
  Groundwater Inflow .......         0.000         0.000
  RDII Inflow ..............         0.000         0.000
  External Inflow ..........         1.384        13.843
  External Outflow .........         1.593        15.935
  Flooding Loss ............         0.000         0.000
  Evaporation Loss .........         0.000         0.000
  Exfiltration Loss ........         0.000         0.000
  Initial Stored Volume ....         0.000         0.000
  Final Stored Volume ......         0.618         6.178
  Continuity Error (%) .....        -0.294
  
  
  **************************           TSS            TP           TDP
  Quality Routing Continuity            kg            kg            kg
  **************************    ----------    ----------    ----------
  Dry Weather Inflow .......         0.000         0.000         0.000
  Wet Weather Inflow .......      5844.921         4.246         2.305
  Groundwater Inflow .......         0.000         0.000         0.000
  RDII Inflow ..............         0.000         0.000         0.000
  External Inflow ..........       137.985         1.039         1.284
  External Outflow .........      5731.724         4.781         3.014
  Flooding Loss ............         0.000         0.000         0.000
  Exfiltration Loss ........         0.000         0.000         0.000
  Mass Reacted .............         0.000         0.000         0.000
  Initial Stored Mass ......         0.000         0.000         0.000
  Final Stored Mass ........        60.636         0.401         0.578
  Continuity Error (%) .....         3.185         1.936        -0.080
  
  
  *************************
  Highest Continuity Errors
  *************************
  Node FID2824 (1.78%)
  Node FID2827 (1.71%)
  Node J72 (1.58%)
  Node J19 (1.46%)
  Node FID2449 (1.42%)
  
  
  ***************************
  Time-Step Critical Elements
  ***************************
  Link C241 (91.31%)
  Link C14 (7.79%)
  
  
  ********************************
  Highest Flow Instability Indexes
  ********************************
  All links are stable.
  
  
  *************************
  Routing Time Step Summary
  *************************
  Minimum Time Step           :     0.47 sec
  Average Time Step           :     0.94 sec
  Maximum Time Step           :     5.00 sec
  Percent in Steady State     :     0.00
  Average Iterations per Step :     2.00
  Percent Not Converging      :     0.00
  
  
  ***************************
  Subcatchment Runoff Summary
  ***************************
  
  --------------------------------------------------------------------------------------------------------
                            Total      Total      Total      Total      Total       Total     Peak  Runoff
                           Precip      Runon       Evap      Infil     Runoff      Runoff   Runoff   Coeff
  Subcatchment                 mm         mm         mm         mm         mm    10^6 ltr      CMS
  --------------------------------------------------------------------------------------------------------
  S0                         5.84       0.00       0.00       4.97       0.54        0.00     0.00   0.093
  S1                         5.84       0.00       0.00       2.26       2.22        0.22     0.06   0.380
  S2                         6.35       0.00       0.00       1.50       3.14        0.54     0.17   0.494
  S3                         5.84       0.00       0.00       3.61       1.39        0.04     0.03   0.238
  S4                         5.84       0.00       0.00       2.48       2.09        0.21     0.11   0.358
  S6                         6.35       0.00       0.00      -0.14       3.79        0.07     0.02   0.596
  S7                         6.35       0.00       0.00       1.77       0.50        0.19     0.05   0.078
  S8                         6.35       0.00       0.00      -0.14       3.80        0.00     0.00   0.599
  S9                         6.35       0.00       0.00       1.30       3.29        0.00     0.00   0.518
  S10                        6.35       0.00       0.00       1.43       3.21        0.01     0.00   0.505
  S11                        6.35       0.00       0.00       4.86       0.98        0.00     0.00   0.154
  S12                        6.35       0.00       0.00       1.68       3.05        0.00     0.00   0.480
  S13                        6.35       0.00       0.00       1.95       2.85        0.21     0.07   0.448
  S14                        6.35       0.00       0.00       4.26       1.37        0.01     0.00   0.215
  S16                        6.35       0.00       0.00       3.01       2.09        0.12     0.04   0.329
  S17                        6.35       0.00       0.00       1.61       3.06        0.59     0.18   0.482
  S18                        6.35       0.00       0.00       0.90       3.55        0.00     0.00   0.560
  S19                        6.35       0.00       0.00       3.17       2.06        0.04     0.02   0.325
  S20                        6.35       0.00       0.00       1.80       2.97        0.02     0.01   0.467
  S21                        6.35       0.00       0.00       3.83       2.23        1.20     0.32   0.351
  S22                        6.35       0.00       0.00       1.23       3.33        0.00     0.00   0.525
  S23                        6.35       0.00       0.00       3.57       1.81        0.03     0.01   0.285
  S24                        6.35       0.00       0.00       3.34       1.96        0.04     0.01   0.308
  S25                        6.35       0.00       0.00       2.03       2.80        0.04     0.01   0.442
  S27                        6.35       0.00       0.00       2.42       2.56        0.01     0.01   0.404
  S28                        5.84       0.00       0.00       5.83       0.01        0.00     0.00   0.001
  S29                        5.84       0.00       0.00       5.79       0.03        0.00     0.00   0.005
  S30                        6.35       0.00       0.00       6.33       0.02        0.00     0.00   0.002
  S31                        6.35       0.00       0.00       6.34       0.01        0.00     0.00   0.001
  S32                        6.35       0.00       0.00       4.51       1.21        0.01     0.00   0.190
  S33                        6.35       0.00       0.00       1.03       3.46        0.04     0.01   0.545
  S34                        6.35       0.00       0.00       3.13       0.06        0.02     0.01   0.010
  S35                        6.35       0.00       0.00       3.32       1.98        0.01     0.00   0.311
  S36                        6.35       0.00       0.00       4.92       0.94        0.01     0.00   0.147
  S37                        6.35       0.00       0.00       1.39       3.23        0.02     0.01   0.509
  S39                        6.35       0.00       0.00       3.48       1.86        0.28     0.10   0.293
  S40                        6.35       0.00       0.00       4.22       1.38        0.03     0.01   0.218
  S41                        6.35       0.00       0.00       1.77       2.98        0.40     0.14   0.469
  S42                        6.35       0.00       0.00       2.20       2.69        0.27     0.09   0.424
  S43                        6.35       0.00       0.00       4.57       1.16        0.02     0.01   0.182
  S44                        6.35       0.00       0.00       2.28       2.64        0.60     0.18   0.415
  S45                        8.13       0.00       0.00       4.20       2.88        0.00     0.00   0.354
  S47                        8.13       0.00       0.00       3.03       3.72        0.16     0.14   0.458
  S48                        8.13       0.00       0.00       3.74       3.22        0.01     0.01   0.396
  S49                        8.13       0.00       0.00       3.19       3.57        0.67     0.42   0.440
  S51                        8.13       0.00       0.00       6.87       0.93        0.01     0.01   0.114
  S52                        8.13       0.00       0.00       3.54       3.34        0.22     0.19   0.411
  S53                        8.13       0.00       0.00       3.38       3.44        0.48     0.34   0.424
  S54                        8.13       0.00       0.00       4.53       2.60        0.25     0.08   0.320
  S55                        8.13       0.00       0.00       3.56       3.30        0.54     0.17   0.406
  S56                        8.13       0.00       0.00       5.66       1.78        0.00     0.00   0.220
  S57                        8.13       0.00       0.00       2.97       3.73        0.04     0.01   0.459
  S58                        8.13       0.00       0.00       3.92       3.04        0.12     0.04   0.374
  S59                        8.13       0.00       0.00       6.89       0.90        0.02     0.01   0.111
  S60                        8.13       0.00       0.00       5.55       1.86        0.05     0.02   0.229
  S61                        8.13       0.00       0.00       7.06       0.78        0.01     0.00   0.096
  S62                        8.13       0.00       0.00       6.52       1.17        0.03     0.03   0.144
  S63                        6.35       0.00       0.00       5.23       0.73        0.01     0.00   0.115
  S64                        6.35       0.00       0.00       2.50       2.51        0.04     0.01   0.396
  S65                        6.35       0.00       0.00       4.00       1.52        0.26     0.08   0.240
  
  
  ****************************
  Subcatchment Washoff Summary
  ****************************
  
  --------------------------------------------------------------
                                 TSS            TP           TDP
  Subcatchment                    kg            kg            kg
  --------------------------------------------------------------
  S0                           0.380         0.000         0.000
  S1                         150.478         0.223         0.051
  S2                         262.245         0.324         0.080
  S3                          51.202         0.086         0.007
  S4                         156.875         0.220         0.047
  S6                          26.561         0.044         0.007
  S7                          42.790         0.058         0.167
  S8                           0.387         0.000         0.000
  S9                           0.451         0.000         0.000
  S10                          5.424         0.005         0.002
  S11                          0.497         0.000         0.000
  S12                          0.259         0.000         0.000
  S13                        107.244         0.176         0.028
  S14                         10.383         0.004         0.002
  S16                         95.486         0.053         0.066
  S17                        292.209         0.340         0.091
  S18                          0.452         0.000         0.000
  S19                         32.855         0.013         0.010
  S20                          8.885         0.004         0.003
  S21                       1407.283         0.214         0.887
  S22                          3.101         0.002         0.001
  S23                         24.984         0.010         0.005
  S24                         32.809         0.043         0.008
  S25                         18.874         0.007         0.005
  S27                         10.176         0.005         0.003
  S28                          0.000         0.000         0.000
  S29                          0.000         0.000         0.000
  S30                          0.000         0.000         0.000
  S31                          0.000         0.000         0.000
  S32                          6.337         0.002         0.001
  S33                         20.968         0.017         0.008
  S34                        365.900         0.034         0.005
  S35                          6.347         0.003         0.002
  S36                         17.274         0.005         0.003
  S37                          9.692         0.004         0.003
  S39                        237.379         0.206         0.060
  S40                         33.757         0.013         0.006
  S41                        226.538         0.270         0.070
  S42                        166.146         0.156         0.062
  S43                         28.719         0.010         0.005
  S44                        361.732         0.333         0.127
  S45                          0.799         0.000         0.000
  S47                         68.005         0.057         0.021
  S48                          4.842         0.002         0.002
  S49                        293.610         0.254         0.099
  S51                         14.301         0.005         0.003
  S52                        106.408         0.101         0.036
  S53                        220.307         0.261         0.074
  S54                        150.363         0.088         0.046
  S55                        258.878         0.192         0.090
  S56                          0.214         0.000         0.000
  S57                         12.665         0.005         0.005
  S58                         66.100         0.059         0.024
  S59                         40.806         0.037         0.005
  S60                         37.983         0.015         0.007
  S61                         13.010         0.004         0.001
  S62                         34.352         0.013         0.007
  S63                         23.688         0.017         0.002
  S64                         21.148         0.008         0.004
  S65                        275.275         0.245         0.061
  --------------------------------------------------------------
  System                    5865.836         4.249         2.307
  
  
  ******************
  Node Depth Summary
  ******************
  
  ---------------------------------------------------------------------------------
                                 Average  Maximum  Maximum  Time of Max    Reported
                                   Depth    Depth      HGL   Occurrence   Max Depth
  Node                 Type       Meters   Meters   Meters  days hr:min      Meters
  ---------------------------------------------------------------------------------
  FID1936              JUNCTION     0.16     0.39  1376.69     0  04:05        0.12
  FID1955              JUNCTION     0.17     0.33  1376.25     0  04:15        0.10
  FID1960              JUNCTION     0.16     0.27  1376.13     0  04:15        0.08
  FID1965              JUNCTION     0.15     0.26  1376.56     0  04:15        0.08
  FID1968              JUNCTION     0.14     0.21  1376.61     0  04:15        0.06
  FID2239              JUNCTION     0.16     0.29  1374.80     0  04:05        0.09
  FID2241              JUNCTION     0.14     0.20  1373.33     0  04:05        0.06
  FID2242              JUNCTION     0.14     0.21  1374.25     0  04:05        0.06
  FID2244              JUNCTION     0.14     0.19  1374.55     0  04:05        0.06
  FID2440              JUNCTION     0.43     0.66  1374.91     0  04:22        0.20
  FID2442              JUNCTION     0.00     0.00  1375.27     0  00:00        0.00
  FID2446              JUNCTION     0.17     0.54  1376.34     0  04:05        0.16
  FID2447              JUNCTION     0.16     0.45  1376.15     0  04:05        0.14
  FID2455              JUNCTION     0.35     0.63  1374.62     0  04:30        0.19
  FID2711              JUNCTION     0.14     0.23  1370.41     0  04:05        0.07
  FID2719              JUNCTION     0.17     0.39  1370.49     0  04:05        0.12
  FID2720              JUNCTION     0.17     0.35  1370.55     0  04:05        0.11
  FID2824              JUNCTION     0.13     0.18  1371.46     0  04:10        0.06
  FID2827              JUNCTION     0.14     0.23  1371.53     0  04:10        0.07
  FID2828              JUNCTION     0.15     0.23  1371.55     0  04:10        0.07
  FID2832              JUNCTION     0.17     0.30  1370.90     0  04:20        0.09
  FID2833              JUNCTION     0.22     0.46  1371.08     0  04:20        0.14
  FID2839              JUNCTION     0.16     0.23  1371.43     0  04:10        0.07
  FID2873              JUNCTION     0.16     0.28  1370.98     0  04:20        0.08
  FID2964              JUNCTION     0.17     0.29  1371.07     0  04:42        0.09
  FID2965              JUNCTION     0.46     0.81  1371.07     0  04:42        0.25
  FID4584              JUNCTION     0.13     0.27  1371.61     0  04:20        0.08
  FID5068              JUNCTION     0.14     0.19  1375.57     0  04:05        0.06
  FID5072              JUNCTION     0.53     0.82  1374.11     0  04:22        0.25
  FID5140              JUNCTION     0.13     0.18  1373.40     0  03:30        0.05
  FID5435              JUNCTION     0.18     0.35  1373.10     0  04:05        0.11
  FID5437              JUNCTION     0.13     0.17  1373.12     0  04:05        0.05
  FID5503              JUNCTION     0.12     0.16  1371.49     0  04:10        0.05
  FID5504              JUNCTION     0.16     0.24  1371.60     0  04:20        0.07
  FID5527              JUNCTION     0.15     0.21  1372.71     0  04:10        0.06
  FID5568              JUNCTION     0.50     0.80  1373.19     0  04:38        0.24
  FID5784              JUNCTION     0.50     0.80  1372.80     0  04:39        0.24
  FID5785              JUNCTION     0.15     0.24  1374.67     0  04:05        0.07
  AFID6926             JUNCTION     0.15     0.24  1370.04     0  04:15        0.07
  AFID7360             JUNCTION     0.51     0.88  1371.01     0  04:42        0.27
  AFID7363             JUNCTION     0.49     0.87  1371.04     0  04:42        0.26
  AFID7376             JUNCTION     0.19     0.38  1371.61     0  04:20        0.12
  AFID7377             JUNCTION     0.42     0.70  1371.38     0  04:38        0.21
  AFID7705             JUNCTION     0.53     0.64  1375.61     0  04:15        0.19
  AFID7706             JUNCTION     0.58     0.70  1375.61     0  04:15        0.21
  AFID7792             JUNCTION     0.18     0.36  1375.16     0  04:20        0.11
  AFID8223             JUNCTION     0.50     0.80  1372.80     0  04:39        0.24
  J1                   JUNCTION     0.76     0.79  1375.78     0  04:19        0.24
  FID4901              JUNCTION     0.49     0.58  1375.65     0  04:17        0.18
  J9                   JUNCTION     0.64     0.68  1375.77     0  04:19        0.21
  J11                  JUNCTION     0.49     0.53  1375.74     0  04:19        0.16
  J12                  JUNCTION     0.49     0.56  1375.67     0  04:18        0.17
  J13                  JUNCTION     0.48     0.57  1375.65     0  04:17        0.17
  FID4902              JUNCTION     0.50     0.60  1375.64     0  04:17        0.18
  J14                  JUNCTION     0.41     0.56  1375.47     0  04:20        0.17
  J15                  JUNCTION     0.38     0.58  1375.24     0  04:22        0.18
  J16                  JUNCTION     0.39     0.59  1375.23     0  04:22        0.18
  FID2449              JUNCTION     0.43     0.67  1374.99     0  04:24        0.20
  J17                  JUNCTION     0.33     0.63  1374.60     0  04:30        0.19
  J19                  JUNCTION     0.48     0.87  1374.41     0  04:35        0.26
  FID5069              JUNCTION     0.55     0.85  1374.10     0  04:22        0.26
  FID5139              JUNCTION     0.51     0.80  1373.16     0  04:38        0.25
  J24                  JUNCTION     0.51     0.81  1373.17     0  04:38        0.25
  FID4984              JUNCTION     0.52     0.82  1372.78     0  04:39        0.25
  FID2669              JUNCTION     0.37     0.67  1369.11     0  04:41        0.20
  FID2712              JUNCTION     0.39     0.70  1369.89     0  04:37        0.21
  FID2718              JUNCTION     0.40     0.71  1369.96     0  04:37        0.22
  FID2838              JUNCTION     0.57     0.95  1370.89     0  04:43        0.29
  FID2825              JUNCTION     0.63     1.03  1370.94     0  04:43        0.31
  FID2823              JUNCTION     0.67     1.09  1370.96     0  04:43        0.33
  FID5505              JUNCTION     0.57     0.96  1370.99     0  04:42        0.29
  FID5436              JUNCTION     0.53     0.82  1372.14     0  04:35        0.25
  FID5438              JUNCTION     0.47     0.76  1372.18     0  04:36        0.23
  J49                  JUNCTION     0.52     0.62  1375.64     0  04:17        0.19
  J50                  JUNCTION     0.55     0.66  1375.63     0  04:16        0.20
  J51                  JUNCTION     0.61     0.72  1375.61     0  04:16        0.22
  J52                  JUNCTION     0.62     0.73  1375.61     0  04:15        0.22
  J53                  JUNCTION     0.41     0.55  1375.48     0  04:20        0.17
  J54                  JUNCTION     0.41     0.55  1375.50     0  04:21        0.17
  J55                  JUNCTION     0.46     0.57  1375.59     0  04:16        0.17
  J56                  JUNCTION     0.43     0.55  1375.57     0  04:21        0.17
  J57                  JUNCTION     0.41     0.53  1375.55     0  04:21        0.16
  J58                  JUNCTION     0.41     0.54  1375.52     0  04:21        0.16
  FID1935              JUNCTION     0.41     0.56  1375.45     0  04:20        0.17
  J59                  JUNCTION     0.41     0.56  1375.43     0  04:21        0.17
  J60                  JUNCTION     0.40     0.56  1375.38     0  04:22        0.17
  J61                  JUNCTION     0.38     0.55  1375.32     0  04:22        0.17
  J62                  JUNCTION     0.37     0.55  1375.30     0  04:22        0.17
  J63                  JUNCTION     0.39     0.58  1375.27     0  04:22        0.18
  J64                  JUNCTION     0.38     0.58  1375.19     0  04:23        0.18
  J65                  JUNCTION     0.34     0.56  1375.14     0  04:23        0.17
  J66                  JUNCTION     0.42     0.66  1374.88     0  04:22        0.20
  J67                  JUNCTION     0.42     0.66  1374.81     0  04:23        0.20
  J68                  JUNCTION     0.40     0.65  1374.71     0  04:23        0.20
  J69                  JUNCTION     0.54     0.85  1374.58     0  04:30        0.26
  J70                  JUNCTION     0.53     0.85  1374.50     0  04:33        0.26
  J71                  JUNCTION     0.51     0.86  1374.46     0  04:34        0.26
  J72                  JUNCTION     0.54     0.82  1374.17     0  04:21        0.25
  J73                  JUNCTION     0.55     0.85  1374.07     0  04:22        0.26
  J74                  JUNCTION     0.56     0.84  1373.82     0  04:24        0.26
  J75                  JUNCTION     0.56     0.84  1373.69     0  04:26        0.26
  J76                  JUNCTION     0.51     0.80  1373.14     0  04:38        0.25
  J77                  JUNCTION     0.51     0.81  1373.01     0  04:37        0.25
  J78                  JUNCTION     0.51     0.80  1372.87     0  04:38        0.24
  J79                  JUNCTION     0.50     0.80  1372.81     0  04:39        0.24
  J80                  JUNCTION     0.44     0.73  1372.21     0  04:37        0.22
  J81                  JUNCTION     0.51     0.80  1371.79     0  04:39        0.24
  J82                  JUNCTION     0.50     0.78  1371.71     0  04:40        0.24
  J83                  JUNCTION     0.44     0.73  1371.54     0  04:40        0.22
  J84                  JUNCTION     0.40     0.67  1371.31     0  04:39        0.20
  J85                  JUNCTION     0.40     0.69  1371.21     0  04:40        0.21
  J86                  JUNCTION     0.42     0.75  1371.12     0  04:41        0.23
  J87                  JUNCTION     0.49     0.85  1371.04     0  04:42        0.26
  J88                  JUNCTION     0.56     0.94  1370.99     0  04:42        0.29
  J89                  JUNCTION     0.59     0.99  1370.98     0  04:43        0.30
  J90                  JUNCTION     0.55     0.93  1370.88     0  04:43        0.28
  J91                  JUNCTION     0.55     0.93  1370.82     0  04:43        0.28
  J92                  JUNCTION     0.55     0.93  1370.76     0  04:43        0.28
  J93                  JUNCTION     0.54     0.93  1370.65     0  04:42        0.28
  J94                  JUNCTION     0.55     0.93  1370.58     0  04:40        0.28
  J95                  JUNCTION     0.55     0.93  1370.56     0  04:40        0.28
  J96                  JUNCTION     0.54     0.92  1370.47     0  04:40        0.28
  J97                  JUNCTION     0.53     0.91  1370.40     0  04:40        0.28
  J98                  JUNCTION     0.52     0.89  1370.34     0  04:40        0.27
  J99                  JUNCTION     0.51     0.87  1370.27     0  04:40        0.27
  J100                 JUNCTION     0.49     0.85  1370.21     0  04:40        0.26
  J101                 JUNCTION     0.47     0.81  1370.14     0  04:39        0.25
  J102                 JUNCTION     0.40     0.72  1369.99     0  04:37        0.22
  J103                 JUNCTION     0.40     0.71  1369.93     0  04:37        0.22
  J104                 JUNCTION     0.39     0.69  1369.85     0  04:37        0.21
  J105                 JUNCTION     0.38     0.68  1369.81     0  04:38        0.21
  J106                 JUNCTION     0.37     0.66  1369.74     0  04:38        0.20
  J107                 JUNCTION     0.37     0.66  1369.60     0  04:39        0.20
  J108                 JUNCTION     0.37     0.66  1369.46     0  04:39        0.20
  J109                 JUNCTION     0.37     0.66  1369.35     0  04:40        0.20
  J110                 JUNCTION     0.37     0.66  1369.25     0  04:40        0.20
  J111                 JUNCTION     0.37     0.67  1369.15     0  04:41        0.20
  J112                 JUNCTION     0.37     0.67  1368.99     0  04:41        0.20
  J113                 JUNCTION     0.37     0.67  1368.90     0  04:42        0.20
  J114                 JUNCTION     0.37     0.67  1368.78     0  04:42        0.20
  J115                 JUNCTION     0.37     0.67  1368.72     0  04:42        0.20
  J116                 JUNCTION     0.37     0.67  1368.65     0  04:43        0.20
  J117                 JUNCTION     0.37     0.67  1368.55     0  04:43        0.20
  J118                 JUNCTION     0.37     0.67  1368.44     0  04:43        0.20
  J119                 JUNCTION     0.38     0.67  1368.37     0  04:43        0.20
  J120                 JUNCTION     0.39     0.66  1368.26     0  04:43        0.20
  FID2451              JUNCTION     0.42     0.66  1374.94     0  04:22        0.20
  J121                 JUNCTION     0.41     0.71  1371.45     0  04:39        0.22
  J122                 JUNCTION     0.42     0.71  1371.42     0  04:39        0.22
  FID3706              JUNCTION     0.55     0.93  1370.67     0  04:42        0.28
  FID2831              JUNCTION     0.55     0.93  1370.55     0  04:39        0.28
  FID2689              OUTFALL      0.24     0.43  1367.93     0  04:43        0.13
  
  
  *******************
  Node Inflow Summary
  *******************
  
  -------------------------------------------------------------------------------------------------
                                  Maximum  Maximum                  Lateral       Total        Flow
                                  Lateral    Total  Time of Max      Inflow      Inflow     Balance
                                   Inflow   Inflow   Occurrence      Volume      Volume       Error
  Node                 Type           CMS      CMS  days hr:min    10^6 ltr    10^6 ltr     Percent
  -------------------------------------------------------------------------------------------------
  FID1936              JUNCTION     0.194    0.194     0  04:05       0.224       0.224       0.075
  FID1955              JUNCTION     0.171    0.171     0  04:15       0.539       0.539       0.033
  FID1960              JUNCTION     0.079    0.079     0  04:15       0.246       0.246       0.070
  FID1965              JUNCTION     0.040    0.040     0  04:15       0.124       0.124       0.141
  FID1968              JUNCTION     0.012    0.012     0  04:15      0.0373      0.0373       0.469
  FID2239              JUNCTION     0.013    0.013     0  04:05      0.0376      0.0376       1.182
  FID2241              JUNCTION     0.000    0.011     0  04:05           0      0.0352       0.493
  FID2242              JUNCTION     0.011    0.011     0  04:05      0.0354      0.0354       0.513
  FID2244              JUNCTION     0.005    0.005     0  04:05      0.0137      0.0137       1.285
  FID2440              JUNCTION     0.000    1.162     0  04:20           0          15       0.268
  FID2442              JUNCTION     0.000    0.000     0  00:00           0           0       0.000 ltr
  FID2446              JUNCTION     0.143    0.143     0  04:05       0.159       0.159       0.768
  FID2447              JUNCTION     0.000    0.140     0  04:05           0       0.157      -0.354
  FID2455              JUNCTION     0.088    1.199     0  04:21       0.273        15.1       0.260
  FID2711              JUNCTION     0.000    0.030     0  04:05           0      0.0447       0.428
  FID2719              JUNCTION     0.111    0.111     0  04:05       0.208       0.208       0.232
  FID2720              JUNCTION     0.032    0.032     0  04:05      0.0449      0.0449       0.494
  FID2824              JUNCTION     0.000    0.004     0  04:10    0.000625     0.00935       1.808
  FID2827              JUNCTION     0.000    0.004     0  04:10    0.000708     0.00887       1.742
  FID2828              JUNCTION     0.003    0.003     0  04:10     0.00835     0.00835       2.319
  FID2832              JUNCTION     0.000    0.172     0  04:20           0       0.541       0.044
  FID2833              JUNCTION     0.173    0.173     0  04:20       0.541       0.541       0.053
  FID2839              JUNCTION     0.048    0.048     0  04:10       0.194       0.194       0.107
  FID2873              JUNCTION     0.023    0.023     0  04:20      0.0711      0.0711       0.598
  FID2964              JUNCTION     0.035    0.035     0  04:10       0.116       0.116       0.146
  FID2965              JUNCTION     0.000    1.363     0  04:39           0        15.7       0.350
  FID4584              JUNCTION     0.000    0.001     0  03:26           0    0.000655      28.021
  FID5068              JUNCTION     0.006    0.006     0  04:05      0.0169      0.0169       1.042
  FID5072              JUNCTION     0.096    1.236     0  04:21       0.276          15       0.239
  FID5140              JUNCTION     0.007    0.007     0  03:30      0.0217      0.0217       0.684
  FID5435              JUNCTION     0.320    0.320     0  04:05         1.2         1.2       0.015
  FID5437              JUNCTION     0.002    0.002     0  04:05      0.0046      0.0046       3.933
  FID5503              JUNCTION     0.000    0.000     0  04:10     0.00067     0.00067      34.927
  FID5504              JUNCTION     0.069    0.069     0  04:20       0.215       0.215       0.124
  FID5527              JUNCTION     0.016    0.016     0  04:10      0.0445      0.0445       0.382
  FID5568              JUNCTION     0.003    1.182     0  04:27     0.00659        14.7       0.853
  FID5784              JUNCTION     0.000    1.210     0  04:35           0        14.7       0.119
  FID5785              JUNCTION     0.000    0.013     0  04:05           0      0.0371       0.512
  AFID6926             JUNCTION     0.056    0.056     0  04:15       0.217       0.217       0.082
  AFID7360             JUNCTION     0.000    1.361     0  04:41    0.000404        15.6       0.256
  AFID7363             JUNCTION     0.000    1.361     0  04:41           0        15.6       0.123
  AFID7376             JUNCTION     0.182    0.182     0  04:20       0.588       0.588       0.043
  AFID7377             JUNCTION     0.000    1.358     0  04:36           0        15.7       0.130
  AFID7705             JUNCTION     0.000    0.705     0  04:15           0          14       0.298
  AFID7706             JUNCTION     0.000    0.634     0  04:17           0        13.8       0.284
  AFID7792             JUNCTION     0.179    0.179     0  04:20       0.595       0.595       0.030
  AFID8223             JUNCTION     0.000    1.206     0  04:36           0        14.7       0.027
  J1                   JUNCTION     0.668    0.668     0  04:15          21          21       0.167
  FID4901              JUNCTION     0.000    0.479     0  04:20           0        13.7       0.265
  J9                   JUNCTION     0.000    0.667     0  04:15           0          21       0.340
  J11                  JUNCTION     0.000    0.665     0  04:15           0        20.9       0.605
  J12                  JUNCTION     0.007    0.669     0  04:21      0.0228        20.8       0.662
  J13                  JUNCTION    -0.220    0.679     0  04:35       -7.13        20.7      -0.205
  FID4902              JUNCTION     0.000    0.486     0  04:20           0        13.7       0.417
  J14                  JUNCTION     0.336    0.817     0  04:20        0.48        14.1       0.220
  J15                  JUNCTION     0.423    1.078     0  04:05       0.669        14.7       0.181
  J16                  JUNCTION     0.009    1.065     0  04:06      0.0093        14.7       0.182
  FID2449              JUNCTION     0.001    0.996     0  04:23     0.00134        14.5       1.441
  J17                  JUNCTION     0.136    1.308     0  04:20       0.405        15.4       0.129
  J19                  JUNCTION     0.014    1.254     0  04:21      0.0352        15.2       1.484
  FID5069              JUNCTION     0.000    1.235     0  04:21           0          15       0.212
  FID5139              JUNCTION     0.000    1.184     0  04:38           0        14.6       0.066
  J24                  JUNCTION     0.015    1.183     0  04:38      0.0401        14.6       0.095
  FID4984              JUNCTION     0.000    1.213     0  04:35           0        14.7       0.998
  FID2669              JUNCTION     0.000    1.502     0  04:40           0        16.1       0.088
  FID2712              JUNCTION     0.000    1.472     0  04:35           0        16.1       0.105
  FID2718              JUNCTION     0.000    1.463     0  04:35           0        16.1       0.073
  FID2838              JUNCTION     0.000    1.384     0  04:42           0        15.7       0.220
  FID2825              JUNCTION     0.000    1.374     0  04:42           0        15.5       0.360
  FID2823              JUNCTION     0.000    1.374     0  04:41           0        15.6       0.573
  FID5505              JUNCTION     0.000    1.375     0  04:40           0        15.7       0.158
  FID5436              JUNCTION     0.000    1.316     0  04:30           0        15.7       0.984
  FID5438              JUNCTION     0.000    1.216     0  04:41           0        14.5       0.181
  J49                  JUNCTION     0.000    0.488     0  04:30           0        13.7       0.672
  J50                  JUNCTION     0.000    0.495     0  04:34    0.000274        13.6       1.163
  J51                  JUNCTION     0.000    0.511     0  04:34           0        13.4       0.924
  J52                  JUNCTION     0.000    0.523     0  04:34           0        13.3       0.273
  J53                  JUNCTION     0.000    0.703     0  04:15           0        13.7       0.246
  J54                  JUNCTION     0.000    0.702     0  04:15           0        13.7       0.364
  J55                  JUNCTION     0.000    0.704     0  04:15           0          14       0.341
  J56                  JUNCTION     0.000    0.702     0  04:15           0        13.9       0.369
  J57                  JUNCTION     0.000    0.701     0  04:15           0        13.9       0.465
  J58                  JUNCTION     0.002    0.703     0  04:16     0.00671        13.8       0.498
  FID1935              JUNCTION     0.000    0.977     0  04:05           0        14.3       0.282
  J59                  JUNCTION     0.000    0.951     0  04:05           0        14.3       0.400
  J60                  JUNCTION     0.009    0.912     0  04:05     0.00935        14.2       0.625
  J61                  JUNCTION     0.000    0.858     0  04:21           0        14.1       0.421
  J62                  JUNCTION     0.000    0.852     0  04:22           0        14.1       0.190
  J63                  JUNCTION     0.000    0.854     0  04:23           0        14.1       0.193
  J64                  JUNCTION     0.000    1.054     0  04:06           0        14.7       0.191
  J65                  JUNCTION     0.027    1.050     0  04:06      0.0299        14.7       1.114
  J66                  JUNCTION     0.000    1.155     0  04:20           0          15       0.337
  J67                  JUNCTION     0.000    1.147     0  04:20           0        14.9       0.500
  J68                  JUNCTION     0.009    1.142     0  04:22      0.0223        14.9       0.534
  J69                  JUNCTION     0.000    1.302     0  04:20           0        15.4       0.530
  J70                  JUNCTION     0.004    1.290     0  04:20      0.0112        15.3       0.681
  J71                  JUNCTION     0.000    1.270     0  04:21           0        15.2       0.496
  J72                  JUNCTION     0.011    1.230     0  04:50      0.0303          15       1.607
  J73                  JUNCTION     0.000    1.230     0  04:21           0          15       0.485
  J74                  JUNCTION     0.000    1.218     0  04:22           0        14.9       0.711
  J75                  JUNCTION     0.005    1.199     0  04:23      0.0117        14.8       1.096
  J76                  JUNCTION     0.000    1.184     0  04:38           0        14.6       0.269
  J77                  JUNCTION     0.077    1.215     0  04:30       0.257        14.8       0.493
  J78                  JUNCTION     0.000    1.209     0  04:32           0        14.7       0.369
  J79                  JUNCTION     0.000    1.206     0  04:36           0        14.7       0.134
  J80                  JUNCTION     0.011    1.211     0  04:39      0.0297        14.6       0.831
  J81                  JUNCTION     0.002    1.310     0  04:34     0.00519        15.5       1.428
  J82                  JUNCTION     0.000    1.301     0  04:38           0        15.3       0.568
  J83                  JUNCTION     0.000    1.300     0  04:40           0        15.2       0.441
  J84                  JUNCTION     0.000    1.358     0  04:36           0        15.7       0.233
  J85                  JUNCTION     0.000    1.357     0  04:37           0        15.7       0.429
  J86                  JUNCTION     0.000    1.355     0  04:39           0        15.6       0.455
  J87                  JUNCTION     0.003    1.362     0  04:40       0.008        15.6       0.192
  J88                  JUNCTION     0.000    1.361     0  04:42           0        15.5       0.284
  J89                  JUNCTION     0.000    1.375     0  04:41           0        15.7       0.437
  J90                  JUNCTION     0.000    1.383     0  04:42           0        15.6       0.160
  J91                  JUNCTION     0.000    1.383     0  04:42           0        15.6       0.221
  J92                  JUNCTION     0.000    1.383     0  04:43    3.26e-06        15.6       0.281
  J93                  JUNCTION     0.000    1.388     0  04:44           0        15.6       0.154
  J94                  JUNCTION     0.000    1.388     0  04:44    5.89e-06        15.5       0.162
  J95                  JUNCTION     0.000    1.389     0  04:45           0        15.5       0.063
  J96                  JUNCTION     0.000    1.427     0  04:37           0          16       0.234
  J97                  JUNCTION     0.000    1.427     0  04:39           0          16       0.199
  J98                  JUNCTION     0.000    1.426     0  04:40           0          16       0.175
  J99                  JUNCTION     0.000    1.426     0  04:40           0        15.9       0.148
  J100                 JUNCTION     0.000    1.427     0  04:41           0        15.9       0.125
  J101                 JUNCTION     0.000    1.427     0  04:42           0        15.9       0.144
  J102                 JUNCTION     0.000    1.427     0  04:42           0        15.9       0.114
  J103                 JUNCTION     0.000    1.461     0  04:35           0          16       0.086
  J104                 JUNCTION     0.000    1.470     0  04:36           0        16.1       0.112
  J105                 JUNCTION     0.000    1.469     0  04:36           0          16       0.139
  J106                 JUNCTION     0.000    1.468     0  04:37           0          16       0.156
  J107                 JUNCTION     0.000    1.467     0  04:37           0          16       0.160
  J108                 JUNCTION     0.000    1.466     0  04:38    2.01e-05          16       0.144
  J109                 JUNCTION     0.000    1.465     0  04:39           0        15.9       0.121
  J110                 JUNCTION     0.000    1.465     0  04:39           0        15.9       0.119
  J111                 JUNCTION     0.000    1.464     0  04:40    0.000178        15.9       0.085
  J112                 JUNCTION     0.000    1.501     0  04:40           0        16.1       0.122
  J113                 JUNCTION     0.000    1.501     0  04:41           0        16.1       0.120
  J114                 JUNCTION     0.000    1.500     0  04:41           0        16.1       0.100
  J115                 JUNCTION     0.000    1.500     0  04:41           0          16       0.075
  J116                 JUNCTION     0.000    1.500     0  04:42    5.71e-06          16       0.100
  J117                 JUNCTION     0.000    1.499     0  04:42           0          16       0.122
  J118                 JUNCTION     0.000    1.499     0  04:43           0          16       0.106
  J119                 JUNCTION     0.000    1.499     0  04:43           0          16       0.109
  J120                 JUNCTION     0.000    1.499     0  04:43           0          16       0.126
  FID2451              JUNCTION     0.000    1.017     0  04:24           0        14.4       0.267
  J121                 JUNCTION     0.006    1.301     0  04:41      0.0157        15.2       0.131
  J122                 JUNCTION     0.000    1.301     0  04:41    0.000711        15.2       0.113
  FID3706              JUNCTION     0.000    1.388     0  04:43           0        15.6       0.214
  FID2831              JUNCTION     0.000    1.428     0  04:36           0        16.1       0.145
  FID2689              OUTFALL      0.000    1.499     0  04:43           0        15.9       0.000
  
  
  **********************
  Node Surcharge Summary
  **********************
  
  Surcharging occurs when water rises above the top of the highest conduit.
  ---------------------------------------------------------------------
                                               Max. Height   Min. Depth
                                   Hours       Above Crown    Below Rim
  Node                 Type      Surcharged         Meters       Meters
  ---------------------------------------------------------------------
  FID2446              JUNCTION        0.01          0.005        0.000
  J19                  JUNCTION        0.13          0.006        0.000
  J71                  JUNCTION        0.03          0.000        0.000
  
  
  *********************
  Node Flooding Summary
  *********************
  
  Flooding refers to all water that overflows a node, whether it ponds or not.
  --------------------------------------------------------------------------
                                                             Total   Maximum
                                 Maximum   Time of Max       Flood    Ponded
                        Hours       Rate    Occurrence      Volume     Depth
  Node                 Flooded       CMS   days hr:min    10^6 ltr    Meters
  --------------------------------------------------------------------------
  FID2446                 0.01     0.003      0  04:05       0.000     0.005
  J19                     0.13     0.036      0  04:31       0.004     0.006
  J71                     0.03     0.004      0  04:33       0.000     0.000
  
  
  ***********************
  Outfall Loading Summary
  ***********************
  
  -----------------------------------------------------------------------------------------------------
                         Flow       Avg       Max       Total         Total         Total         Total
                         Freq      Flow      Flow      Volume           TSS            TP           TDP
  Outfall Node           Pcnt       CMS       CMS    10^6 ltr            kg            kg            kg
  -----------------------------------------------------------------------------------------------------
  FID2689               76.13     0.856     1.499      15.935      5658.735         4.419         2.588
  -----------------------------------------------------------------------------------------------------
  System                76.13     0.856     1.499      15.935      5658.735         4.419         2.588
  
  
  ********************
  Link Flow Summary
  ********************
  
  -----------------------------------------------------------------------------
                                 Maximum  Time of Max   Maximum    Max/    Max/
                                  |Flow|   Occurrence   |Veloc|    Full    Full
  Link                 Type          CMS  days hr:min     m/sec    Flow   Depth
  -----------------------------------------------------------------------------
  FID1123              CONDUIT     0.023     0  04:20      0.71    0.36    0.59
  FID1139              CONDUIT     0.108     0  04:05      1.42    0.73    0.63
  FID1148              CONDUIT     0.172     0  04:20      1.06    0.40    0.30
  FID1149              CONDUIT     0.172     0  04:20      2.04    0.06    0.32
  FID3364              CONDUIT     0.180     0  04:20      0.73    0.14    0.41
  FID3671              CONDUIT     0.012     0  04:15      1.21    0.08    0.19
  FID3672              CONDUIT     0.040     0  04:15      1.70    0.27    0.36
  FID3762              CONDUIT     0.079     0  04:15      1.33    0.22    0.54
  FID3765              CONDUIT     0.171     0  04:15      2.25    0.45    0.64
  FID4112              CONDUIT     0.193     0  04:05      1.86    0.32    0.39
  FID4186              CONDUIT     0.011     0  04:05      1.00    0.05    0.16
  FID4187              CONDUIT     0.011     0  04:05      1.57    0.03    0.11
  FID4201              CONDUIT     0.140     0  04:05      1.31    1.34    0.89
  FID4202              CONDUIT     0.139     0  04:05      1.52    0.95    0.75
  FID4203              CONDUIT     0.000     0  00:00      0.00    0.00    0.28
  FID4299              CONDUIT     0.006     0  04:05      0.97    0.02    0.11
  FID4372              CONDUIT     0.007     0  03:30      0.07    0.00    0.31
  FID4498              CONDUIT     0.035     0  04:10      0.41    0.12    0.65
  FID4806              CONDUIT     0.320     0  04:05      3.02    0.10    0.22
  FID4807              CONDUIT     0.002     0  04:05      0.74    0.01    0.07
  FID4882              CONDUIT     0.000     0  04:10      0.02    0.00    0.52
  FID4884              CONDUIT     0.069     0  04:20      1.98    0.02    0.14
  FID4914              CONDUIT     0.016     0  04:10      0.55    0.05    0.58
  FID4915              CONDUIT     0.003     0  04:10      0.19    0.09    0.21
  FID4916              CONDUIT     0.004     0  04:10      0.30    0.09    0.16
  FID4917              CONDUIT     0.004     0  04:10      0.77    0.01    0.54
  FID5307              CONDUIT     0.013     0  04:05      0.50    0.22    0.29
  FID5308              CONDUIT     0.005     0  04:05      1.18    0.03    0.11
  FID5312              CONDUIT     0.013     0  04:06      0.65    0.07    0.18
  FID5865              CONDUIT     0.048     0  04:10      1.95    0.02    0.25
  C9                   CHANNEL     0.667     0  04:15      0.60    0.09    0.52
  C12                  CHANNEL     0.666     0  04:35      0.41    0.37    0.63
  C13                  CHANNEL     0.679     0  04:35      0.55    0.37    0.66
  C14                  CHANNEL     0.464     0  04:36      0.55    0.26    0.67
  C52                  CONDUIT     0.179     0  04:20      1.14    0.26    0.59
  C130                 CONDUIT     0.030     0  04:05      0.60    0.52    0.34
  C131                 CONDUIT     0.030     0  04:05      1.45    0.06    0.38
  C139                 CONDUIT     0.001     0  03:26      0.08    0.02    0.46
  C191                 CHANNEL     0.488     0  04:30      0.42    0.27    0.70
  C193                 CHANNEL     0.511     0  04:34      0.33    0.28    0.80
  C194                 CHANNEL     0.523     0  04:34      0.27    0.29    0.84
  C195                 CHANNEL     0.527     0  04:35      0.31    0.13    0.68
  C196                 CONDUIT     0.479     0  04:20      0.40    0.44    0.74
  C197                 CONDUIT     0.634     0  04:17      0.22    0.37    0.95
  C198                 CHANNEL     0.704     0  04:15      0.27    0.17    0.57
  C199                 CHANNEL     0.702     0  04:15      0.27    3.84    0.67
  C200                 CHANNEL     0.701     0  04:15      0.29    3.47    0.64
  C201                 CHANNEL     0.701     0  04:16      0.29    0.26    0.53
  C202                 CHANNEL     0.702     0  04:15      0.29    0.26    0.54
  C203                 CHANNEL     0.703     0  04:15      0.29    0.26    0.55
  C204                 CHANNEL     0.705     0  04:15      0.41    0.26    0.56
  C205                 CONDUIT     0.809     0  04:20      0.30    0.70    0.68
  C206                 CHANNEL     0.951     0  04:05      0.36    0.35    0.56
  C207                 CHANNEL     0.906     0  04:05      0.35    0.34    0.56
  C208                 CHANNEL     0.858     0  04:21      0.33    0.32    0.55
  C209                 CHANNEL     0.852     0  04:22      0.33    0.32    0.55
  C210                 CHANNEL     0.854     0  04:23      0.40    0.33    0.65
  C211                 CHANNEL     0.857     0  04:23      0.39    0.39    0.59
  C212                 CONDUIT     1.062     0  04:06      0.39    0.77    0.71
  C213                 CHANNEL     1.054     0  04:06      0.50    0.48    0.59
  C214                 CHANNEL     1.041     0  04:07      0.51    0.47    0.58
  C215                 CONDUIT     0.996     0  04:23      0.34    0.72    0.75
  C216                 CONDUIT     1.003     0  04:25      0.42    0.94    0.62
  C217                 CONDUIT     1.019     0  04:25      0.36    0.51    0.48
  C218                 CHANNEL     1.155     0  04:20      0.44    0.52    0.68
  C219                 CHANNEL     1.147     0  04:20      0.44    0.52    0.67
  C220                 CHANNEL     1.139     0  04:22      0.45    0.52    0.66
  C221                 CHANNEL     1.143     0  04:23      0.46    0.52    0.65
  C222                 CONDUIT     1.198     0  04:22      0.45    1.01    0.77
  C223                 CHANNEL     1.302     0  04:20      0.55    0.20    0.66
  C224                 CHANNEL     1.288     0  04:20      0.43    1.05    0.99
  C225                 CHANNEL     1.270     0  04:21      0.44    1.03    1.00
  C226                 CHANNEL     1.248     0  04:21      0.47    1.02    1.00
  C227                 CONDUIT     1.230     0  04:50      0.36    1.25    0.99
  C228                 CHANNEL     1.193     0  04:50      0.56    0.61    0.76
  C229                 CONDUIT     1.231     0  04:21      0.29    0.27    0.56
  C230                 CHANNEL     1.230     0  04:21      0.55    0.63    0.78
  C231                 CHANNEL     1.218     0  04:22      0.55    0.62    0.78
  C232                 CHANNEL     1.199     0  04:23      0.55    0.61    0.78
  C233                 CHANNEL     1.181     0  04:36      0.56    0.60    0.76
  C234                 CONDUIT     1.181     0  04:39      0.42    0.61    0.58
  C235                 CHANNEL     1.183     0  04:39      0.57    0.61    0.75
  C236                 CHANNEL     1.184     0  04:38      0.54    0.71    0.83
  C237                 CHANNEL     1.184     0  04:39      0.54    0.71    0.83
  C238                 CHANNEL     1.209     0  04:32      0.55    0.72    0.83
  C239                 CHANNEL     1.206     0  04:36      0.55    0.72    0.83
  C240                 CHANNEL     1.206     0  04:37      0.56    0.71    0.83
  C241                 CHANNEL     1.206     0  04:36      0.68    0.72    0.83
  C242                 CONDUIT     1.209     0  04:36      0.42    0.53    0.66
  C243                 CHANNEL     1.210     0  04:39      0.58    0.73    0.80
  C244                 CHANNEL     1.215     0  04:41      0.68    0.25    0.48
  C245                 CONDUIT     1.217     0  04:41      0.49    0.42    0.62
  C246                 CHANNEL     1.306     0  04:35      0.47    0.53    0.71
  C247                 CHANNEL     1.301     0  04:38      0.48    0.52    0.69
  C248                 CHANNEL     1.300     0  04:40      0.51    0.52    0.66
  C249                 CHANNEL     1.301     0  04:41      3.06    0.66    0.68
  C250                 CONDUIT     1.301     0  04:41      0.58    0.60    0.55
  C251                 CONDUIT     1.302     0  04:41      0.58    0.60    0.55
  C252                 CHANNEL     1.358     0  04:36      0.89    0.69    0.65
  C253                 CHANNEL     1.357     0  04:37      0.51    0.39    0.64
  C254                 CHANNEL     1.355     0  04:39      0.47    0.39    0.68
  C255                 CHANNEL     1.353     0  04:40      0.42    0.39    0.74
  C256                 CHANNEL     1.362     0  04:40      0.40    0.39    0.78
  C257                 CHANNEL     1.361     0  04:41      2.06    0.39    0.81
  C258                 CONDUIT     1.361     0  04:41      0.49    0.63    0.68
  C259                 CHANNEL     1.361     0  04:42      0.41    0.39    0.86
  C260                 CHANNEL     1.360     0  04:42      0.40    0.39    0.90
  C261                 CHANNEL     1.375     0  04:41      3.04    0.39    0.92
  C262                 CHANNEL     1.374     0  04:41      0.80    0.39    0.97
  C263                 CHANNEL     1.374     0  04:43      0.40    0.40    0.67
  C264                 CONDUIT     1.374     0  04:43      0.45    0.89    0.72
  C265                 CHANNEL     1.383     0  04:42      0.49    0.40    0.60
  C266                 CHANNEL     1.383     0  04:42      0.49    0.34    0.65
  C267                 CHANNEL     1.383     0  04:43      0.52    0.34    0.65
  C268                 CHANNEL     1.383     0  04:44      0.49    0.34    0.65
  C269                 CHANNEL     1.388     0  04:44      0.50    0.34    0.65
  C270                 CHANNEL     1.388     0  04:44      0.50    0.34    0.65
  C271                 CHANNEL     1.389     0  04:45      0.50    0.34    0.65
  C272                 CHANNEL     1.389     0  04:45      0.50    0.34    0.65
  C273                 CHANNEL     1.427     0  04:37      0.52    0.35    0.64
  C274                 CHANNEL     1.427     0  04:39      0.53    0.35    0.64
  C275                 CHANNEL     1.426     0  04:40      0.54    0.35    0.63
  C276                 CHANNEL     1.426     0  04:40      0.56    0.35    0.62
  C277                 CHANNEL     1.427     0  04:41      0.59    0.35    0.60
  C278                 CHANNEL     1.427     0  04:42      0.63    0.35    0.58
  C279                 CHANNEL     1.427     0  04:42      0.73    0.35    0.53
  C280                 CHANNEL     1.429     0  04:42      0.58    0.61    0.73
  C281                 CHANNEL     1.461     0  04:35      0.60    0.62    0.72
  C282                 CHANNEL     1.460     0  04:36      0.60    0.62    0.72
  C283                 CHANNEL     1.470     0  04:36      0.62    0.63    0.71
  C284                 CHANNEL     1.469     0  04:36      0.63    0.63    0.70
  C285                 CHANNEL     1.468     0  04:37      0.64    0.63    0.68
  C286                 CHANNEL     1.467     0  04:37      0.73    0.45    0.67
  C287                 CHANNEL     1.466     0  04:38      0.73    0.45    0.67
  C288                 CHANNEL     1.465     0  04:39      0.73    0.45    0.67
  C289                 CHANNEL     1.465     0  04:39      0.73    0.45    0.67
  C290                 CHANNEL     1.464     0  04:40      0.72    0.45    0.68
  C291                 CHANNEL     1.464     0  04:40      0.72    0.45    0.68
  C292                 CHANNEL     1.501     0  04:40      0.74    0.46    0.68
  C293                 CHANNEL     1.501     0  04:41      0.74    0.46    0.68
  C294                 CHANNEL     1.500     0  04:41      0.74    0.46    0.68
  C295                 CHANNEL     1.500     0  04:41      0.74    0.46    0.68
  C296                 CHANNEL     1.500     0  04:42      0.74    0.46    0.68
  C297                 CHANNEL     1.499     0  04:42      0.74    0.46    0.68
  C298                 CHANNEL     1.499     0  04:43      0.74    0.46    0.68
  C299                 CHANNEL     1.499     0  04:43      0.74    0.46    0.68
  C300                 CHANNEL     1.499     0  04:43      0.74    0.46    0.68
  C301                 CHANNEL     1.499     0  04:43      1.19    0.33    0.42
  C302                 CHANNEL     0.665     0  04:15      0.52    0.13    0.47
  C303                 CHANNEL     0.495     0  04:34      0.37    0.27    0.74
  C353                 CONDUIT     0.056     0  04:15      1.80    0.02    0.09
  
  
  ***************************
  Flow Classification Summary
  ***************************
  
  -------------------------------------------------------------------------------------
                      Adjusted    ---------- Fraction of Time in Flow Class ---------- 
                       /Actual         Up    Down  Sub   Sup   Up    Down  Norm  Inlet 
  Conduit               Length    Dry  Dry   Dry   Crit  Crit  Crit  Crit  Ltd   Ctrl  
  -------------------------------------------------------------------------------------
  FID1123                 1.00   0.12  0.00  0.00  0.39  0.00  0.00  0.49  0.28  0.00
  FID1139                 1.00   0.14  0.00  0.00  0.23  0.01  0.00  0.63  0.16  0.00
  FID1148                 1.00   0.11  0.00  0.00  0.39  0.00  0.00  0.49  0.00  0.00
  FID1149                 1.00   0.12  0.00  0.00  0.72  0.04  0.00  0.13  0.59  0.00
  FID3364                 1.00   0.12  0.00  0.00  0.84  0.00  0.00  0.05  0.66  0.00
  FID3671                 1.00   0.14  0.00  0.00  0.00  0.00  0.00  0.86  0.00  0.00
  FID3672                 1.00   0.14  0.00  0.00  0.00  0.00  0.00  0.86  0.00  0.00
  FID3762                 1.00   0.01  0.13  0.00  0.81  0.05  0.00  0.00  0.68  0.00
  FID3765                 1.00   0.01  0.13  0.00  0.68  0.18  0.00  0.00  0.68  0.00
  FID4112                 1.00   0.14  0.00  0.00  0.00  0.00  0.00  0.86  0.00  0.00
  FID4186                 1.00   0.16  0.00  0.00  0.20  0.28  0.00  0.37  0.00  0.00
  FID4187                 1.00   0.17  0.00  0.00  0.00  0.00  0.00  0.83  0.00  0.00
  FID4201                 1.00   0.14  0.00  0.00  0.73  0.00  0.00  0.13  0.38  0.00
  FID4202                 1.00   0.14  0.00  0.00  0.00  0.00  0.00  0.86  0.00  0.00
  FID4203                 1.00   0.15  0.85  0.00  0.00  0.00  0.00  0.00  0.00  0.00
  FID4299                 1.00   0.15  0.00  0.00  0.00  0.00  0.00  0.85  0.00  0.00
  FID4372                 1.00   0.08  0.08  0.00  0.84  0.00  0.00  0.00  0.67  0.00
  FID4498                 1.00   0.13  0.00  0.00  0.82  0.00  0.00  0.05  0.50  0.00
  FID4806                 1.00   0.15  0.00  0.00  0.00  0.00  0.00  0.85  0.00  0.00
  FID4807                 1.00   0.20  0.00  0.00  0.00  0.00  0.00  0.80  0.00  0.00
  FID4882                 1.00   0.22  0.47  0.00  0.31  0.00  0.00  0.00  0.60  0.00
  FID4884                 1.00   0.12  0.00  0.00  0.25  0.04  0.00  0.59  0.20  0.00
  FID4914                 1.00   0.12  0.00  0.00  0.87  0.00  0.00  0.01  0.69  0.00
  FID4915                 1.00   0.13  0.00  0.00  0.83  0.00  0.00  0.04  0.51  0.00
  FID4916                 1.00   0.17  0.00  0.00  0.60  0.00  0.00  0.23  0.03  0.00
  FID4917                 1.00   0.20  0.00  0.00  0.62  0.00  0.00  0.17  0.50  0.00
  FID5307                 1.00   0.15  0.00  0.00  0.80  0.00  0.00  0.04  0.34  0.00
  FID5308                 1.00   0.15  0.00  0.00  0.00  0.00  0.00  0.85  0.00  0.00
  FID5312                 1.00   0.17  0.00  0.00  0.00  0.00  0.00  0.83  0.00  0.00
  FID5865                 1.00   0.12  0.00  0.00  0.42  0.03  0.00  0.43  0.33  0.00
  C9                      1.00   0.00  0.00  0.00  1.00  0.00  0.00  0.00  0.00  0.00
  C12                     1.00   0.00  0.00  0.00  1.00  0.00  0.00  0.00  0.00  0.00
  C13                     1.00   0.00  0.00  0.00  1.00  0.00  0.00  0.00  0.00  0.00
  C14                     1.00   0.00  0.00  0.00  1.00  0.00  0.00  0.00  0.00  0.00
  C52                     1.00   0.04  0.10  0.00  0.85  0.00  0.00  0.00  0.68  0.00
  C130                    1.00   0.14  0.00  0.00  0.56  0.00  0.00  0.31  0.00  0.00
  C131                    1.00   0.15  0.00  0.00  0.49  0.01  0.00  0.35  0.38  0.00
  C139                    1.00   0.12  0.48  0.00  0.39  0.00  0.01  0.00  0.48  0.00
  C191                    1.00   0.00  0.00  0.00  1.00  0.00  0.00  0.00  0.00  0.00
  C193                    1.00   0.00  0.00  0.00  1.00  0.00  0.00  0.00  0.00  0.00
  C194                    1.00   0.01  0.00  0.00  0.99  0.00  0.00  0.00  0.00  0.00
  C195                    1.00   0.01  0.00  0.00  0.99  0.00  0.00  0.00  0.00  0.00
  C196                    1.00   0.00  0.00  0.00  1.00  0.00  0.00  0.00  0.00  0.00
  C197                    1.00   0.01  0.00  0.00  0.99  0.00  0.00  0.00  0.00  0.00
  C198                    1.00   0.01  0.00  0.00  0.99  0.00  0.00  0.00  0.00  0.00
  C199                    1.00   0.01  0.00  0.00  0.99  0.00  0.00  0.00  0.00  0.00
  C200                    1.00   0.01  0.00  0.00  0.99  0.00  0.00  0.00  0.00  0.00
  C201                    1.00   0.01  0.00  0.00  0.99  0.00  0.00  0.00  0.00  0.00
  C202                    1.00   0.01  0.00  0.00  0.99  0.00  0.00  0.00  0.00  0.00
  C203                    1.00   0.01  0.00  0.00  0.99  0.00  0.00  0.00  0.00  0.00
  C204                    1.00   0.02  0.00  0.00  0.98  0.00  0.00  0.00  0.00  0.00
  C205                    1.00   0.02  0.00  0.00  0.98  0.00  0.00  0.00  0.00  0.00
  C206                    1.00   0.02  0.00  0.00  0.98  0.00  0.00  0.00  0.00  0.00
  C207                    1.00   0.02  0.00  0.00  0.98  0.00  0.00  0.00  0.00  0.00
  C208                    1.00   0.02  0.00  0.00  0.98  0.00  0.00  0.00  0.00  0.00
  C209                    1.00   0.02  0.00  0.00  0.98  0.00  0.00  0.00  0.00  0.00
  C210                    1.00   0.02  0.00  0.00  0.98  0.00  0.00  0.00  0.00  0.00
  C211                    1.00   0.03  0.00  0.00  0.97  0.00  0.00  0.00  0.00  0.00
  C212                    1.00   0.03  0.00  0.00  0.97  0.00  0.00  0.00  0.00  0.00
  C213                    1.00   0.03  0.00  0.00  0.97  0.00  0.00  0.00  0.00  0.00
  C214                    1.00   0.03  0.00  0.00  0.97  0.00  0.00  0.00  0.00  0.00
  C215                    1.00   0.03  0.00  0.00  0.97  0.00  0.00  0.00  0.57  0.00
  C216                    1.00   0.03  0.00  0.00  0.97  0.00  0.00  0.00  0.00  0.00
  C217                    1.00   0.03  0.00  0.00  0.97  0.00  0.00  0.00  0.00  0.00
  C218                    1.00   0.03  0.00  0.00  0.97  0.00  0.00  0.00  0.00  0.00
  C219                    1.00   0.04  0.00  0.00  0.96  0.00  0.00  0.00  0.00  0.00
  C220                    1.00   0.04  0.00  0.00  0.96  0.00  0.00  0.00  0.00  0.00
  C221                    1.00   0.04  0.00  0.00  0.96  0.00  0.00  0.00  0.00  0.00
  C222                    1.00   0.05  0.00  0.00  0.95  0.00  0.00  0.00  0.00  0.00
  C223                    1.00   0.05  0.00  0.00  0.95  0.00  0.00  0.00  0.01  0.00
  C224                    1.00   0.05  0.00  0.00  0.95  0.00  0.00  0.00  0.00  0.00
  C225                    1.00   0.05  0.00  0.00  0.95  0.00  0.00  0.00  0.00  0.00
  C226                    1.00   0.05  0.00  0.00  0.95  0.00  0.00  0.00  0.00  0.00
  C227                    1.00   0.05  0.00  0.00  0.95  0.00  0.00  0.00  0.00  0.00
  C228                    1.00   0.06  0.00  0.00  0.94  0.00  0.00  0.00  0.00  0.00
  C229                    1.00   0.06  0.00  0.00  0.94  0.00  0.00  0.00  0.00  0.00
  C230                    1.00   0.06  0.00  0.00  0.94  0.00  0.00  0.00  0.00  0.00
  C231                    1.00   0.07  0.00  0.00  0.93  0.00  0.00  0.00  0.00  0.00
  C232                    1.00   0.07  0.00  0.00  0.93  0.00  0.00  0.00  0.00  0.00
  C233                    1.00   0.07  0.00  0.00  0.93  0.00  0.00  0.00  0.00  0.00
  C234                    1.00   0.07  0.00  0.00  0.93  0.00  0.00  0.00  0.00  0.00
  C235                    1.00   0.07  0.00  0.00  0.93  0.00  0.00  0.00  0.00  0.00
  C236                    1.00   0.08  0.00  0.00  0.92  0.00  0.00  0.00  0.00  0.00
  C237                    1.00   0.08  0.00  0.00  0.92  0.00  0.00  0.00  0.00  0.00
  C238                    1.00   0.08  0.00  0.00  0.92  0.00  0.00  0.00  0.00  0.00
  C239                    1.00   0.08  0.00  0.00  0.92  0.00  0.00  0.00  0.00  0.00
  C240                    1.00   0.08  0.00  0.00  0.92  0.00  0.00  0.00  0.00  0.00
  C241                    1.00   0.08  0.00  0.00  0.92  0.00  0.00  0.00  0.00  0.00
  C242                    1.00   0.08  0.00  0.00  0.92  0.00  0.00  0.00  0.00  0.00
  C243                    1.00   0.09  0.00  0.00  0.91  0.00  0.00  0.00  0.00  0.00
  C244                    1.00   0.09  0.00  0.00  0.91  0.00  0.00  0.00  0.00  0.00
  C245                    1.00   0.09  0.00  0.00  0.91  0.00  0.00  0.00  0.00  0.00
  C246                    1.00   0.10  0.00  0.00  0.90  0.00  0.00  0.00  0.16  0.00
  C247                    1.00   0.11  0.00  0.00  0.89  0.00  0.00  0.00  0.00  0.00
  C248                    1.00   0.12  0.00  0.00  0.88  0.00  0.00  0.00  0.00  0.00
  C249                    1.00   0.11  0.03  0.00  0.86  0.00  0.00  0.00  0.01  0.00
  C250                    1.00   0.11  0.00  0.00  0.89  0.00  0.00  0.00  0.02  0.00
  C251                    1.00   0.11  0.00  0.00  0.89  0.00  0.00  0.00  0.01  0.00
  C252                    1.00   0.12  0.00  0.00  0.88  0.00  0.00  0.00  0.01  0.00
  C253                    1.00   0.12  0.00  0.00  0.88  0.00  0.00  0.00  0.00  0.00
  C254                    1.00   0.13  0.00  0.00  0.87  0.00  0.00  0.00  0.00  0.00
  C255                    1.00   0.13  0.03  0.00  0.85  0.00  0.00  0.00  0.01  0.00
  C256                    1.00   0.11  0.02  0.00  0.87  0.00  0.00  0.00  0.03  0.00
  C257                    1.00   0.11  0.00  0.00  0.88  0.01  0.00  0.00  0.00  0.00
  C258                    1.00   0.11  0.01  0.00  0.88  0.00  0.00  0.00  0.01  0.00
  C259                    1.00   0.11  0.00  0.00  0.89  0.00  0.00  0.00  0.05  0.00
  C260                    1.00   0.12  0.00  0.00  0.88  0.00  0.00  0.00  0.00  0.00
  C261                    1.00   0.12  0.00  0.00  0.88  0.00  0.00  0.00  0.03  0.00
  C262                    1.00   0.12  0.00  0.00  0.88  0.00  0.00  0.00  0.01  0.00
  C263                    1.00   0.12  0.00  0.00  0.88  0.00  0.00  0.00  0.00  0.00
  C264                    1.00   0.12  0.00  0.00  0.88  0.00  0.00  0.00  0.02  0.00
  C265                    1.00   0.12  0.01  0.00  0.88  0.00  0.00  0.00  0.00  0.00
  C266                    1.00   0.13  0.00  0.00  0.87  0.00  0.00  0.00  0.00  0.00
  C267                    1.00   0.11  0.09  0.00  0.80  0.00  0.00  0.00  0.00  0.00
  C268                    1.00   0.11  0.00  0.00  0.89  0.00  0.00  0.00  0.08  0.00
  C269                    1.00   0.12  0.00  0.00  0.88  0.00  0.00  0.00  0.00  0.00
  C270                    1.00   0.11  0.02  0.00  0.87  0.00  0.00  0.00  0.07  0.00
  C271                    1.00   0.11  0.00  0.00  0.89  0.00  0.00  0.00  0.01  0.00
  C272                    1.00   0.12  0.00  0.00  0.88  0.00  0.00  0.00  0.00  0.00
  C273                    1.00   0.12  0.00  0.00  0.88  0.00  0.00  0.00  0.02  0.00
  C274                    1.00   0.12  0.00  0.00  0.88  0.00  0.00  0.00  0.02  0.00
  C275                    1.00   0.13  0.00  0.00  0.87  0.00  0.00  0.00  0.02  0.00
  C276                    1.00   0.15  0.00  0.00  0.85  0.00  0.00  0.00  0.01  0.00
  C277                    1.00   0.17  0.00  0.00  0.83  0.00  0.00  0.00  0.00  0.00
  C278                    1.00   0.18  0.00  0.00  0.82  0.00  0.00  0.00  0.00  0.00
  C279                    1.00   0.14  0.05  0.00  0.81  0.00  0.00  0.00  0.01  0.00
  C280                    1.00   0.14  0.00  0.00  0.86  0.00  0.00  0.00  0.03  0.00
  C281                    1.00   0.14  0.00  0.00  0.86  0.00  0.00  0.00  0.03  0.00
  C282                    1.00   0.14  0.00  0.00  0.86  0.00  0.00  0.00  0.04  0.00
  C283                    1.00   0.14  0.00  0.00  0.86  0.00  0.00  0.00  0.03  0.00
  C284                    1.00   0.15  0.00  0.00  0.85  0.00  0.00  0.00  0.03  0.00
  C285                    1.00   0.16  0.00  0.00  0.84  0.00  0.00  0.00  0.01  0.00
  C286                    1.00   0.17  0.00  0.00  0.83  0.00  0.00  0.00  0.01  0.00
  C287                    1.00   0.13  0.04  0.00  0.82  0.00  0.00  0.00  0.00  0.00
  C288                    1.00   0.13  0.00  0.00  0.87  0.00  0.00  0.00  0.01  0.00
  C289                    1.00   0.20  0.00  0.00  0.80  0.00  0.00  0.00  0.00  0.00
  C290                    1.00   0.13  0.08  0.00  0.79  0.00  0.00  0.00  0.02  0.00
  C291                    1.00   0.13  0.00  0.00  0.87  0.00  0.00  0.00  0.05  0.00
  C292                    1.00   0.15  0.00  0.00  0.85  0.00  0.00  0.00  0.02  0.00
  C293                    1.00   0.15  0.00  0.00  0.85  0.00  0.00  0.00  0.02  0.00
  C294                    1.00   0.16  0.00  0.00  0.84  0.00  0.00  0.00  0.01  0.00
  C295                    1.00   0.17  0.00  0.00  0.83  0.00  0.00  0.00  0.01  0.00
  C296                    1.00   0.14  0.04  0.00  0.82  0.00  0.00  0.00  0.01  0.00
  C297                    1.00   0.14  0.00  0.00  0.86  0.00  0.00  0.00  0.01  0.00
  C298                    1.00   0.20  0.00  0.00  0.80  0.00  0.00  0.00  0.01  0.00
  C299                    1.00   0.21  0.00  0.00  0.79  0.00  0.00  0.00  0.01  0.00
  C300                    1.00   0.21  0.00  0.00  0.79  0.00  0.00  0.00  0.01  0.00
  C301                    1.00   0.23  0.00  0.00  0.77  0.00  0.00  0.00  0.00  0.00
  C302                    1.00   0.00  0.00  0.00  1.00  0.00  0.00  0.00  0.00  0.00
  C303                    1.00   0.00  0.00  0.00  1.00  0.00  0.00  0.00  0.00  0.00
  C353                    1.00   0.14  0.00  0.00  0.00  0.00  0.00  0.86  0.00  0.00
  
  
  *************************
  Conduit Surcharge Summary
  *************************
  
  ----------------------------------------------------------------------------
                                                           Hours        Hours 
                         --------- Hours Full --------   Above Full   Capacity
  Conduit                Both Ends  Upstream  Dnstream   Normal Flow   Limited
  ----------------------------------------------------------------------------
  FID4201                     0.01      0.01      0.01      0.07         0.01
  FID4498                     0.01      0.01      2.04      0.01         0.01
  FID4882                     0.01      0.01      2.63      0.01         0.01
  FID4914                     0.01      0.01      2.99      0.01         0.01
  FID4917                     0.01      0.01      1.06      0.01         0.01
  C199                        0.01      0.01      0.01      8.52         0.01
  C200                        0.01      0.01      0.01      8.46         0.01
  C222                        0.01      0.01      0.01      0.05         0.01
  C224                        0.01      0.01      0.01      0.17         0.01
  C225                        0.01      0.01      0.03      0.11         0.01
  C226                        0.03      0.03      0.13      0.05         0.01
  C227                        0.01      0.36      0.01      0.86         0.01
  C262                        0.01      0.01      0.75      0.01         0.01
  
  
  ***************************
  Link Pollutant Load Summary
  ***************************
  
  --------------------------------------------------------------
                                 TSS            TP           TDP
  Link                            kg            kg            kg
  --------------------------------------------------------------
  FID1123                     25.815         0.044         0.007
  FID1139                    155.168         0.219         0.046
  FID1148                    260.623         0.323         0.080
  FID1149                    260.438         0.322         0.080
  FID3364                    291.684         0.343         0.092
  FID3671                     11.984         0.004         0.005
  FID3672                     65.790         0.058         0.024
  FID3762                    150.362         0.087         0.046
  FID3765                    258.895         0.192         0.090
  FID4112                    104.346         0.100         0.036
  FID4186                     18.375         0.007         0.005
  FID4187                     18.075         0.007         0.005
  FID4201                     63.335         0.055         0.021
  FID4202                     60.151         0.054         0.021
  FID4203                      0.000         0.000         0.000
  FID4299                      8.426         0.004         0.003
  FID4372                    371.377         0.032         0.004
  FID4498                    100.063         0.055         0.068
  FID4806                   1398.952         0.215         0.887
  FID4807                      0.000         0.001         0.001
  FID4882                      0.155         0.000         0.000
  FID4884                    107.055         0.176         0.028
  FID4914                     32.911         0.015         0.010
  FID4915                      1.890         0.004         0.002
  FID4916                      0.655         0.003         0.002
  FID4917                      0.243         0.002         0.002
  FID5307                     29.212         0.042         0.008
  FID5308                      8.240         0.004         0.003
  FID5312                     27.246         0.040         0.008
  FID5865                     42.688         0.058         0.167
  C9                         175.635         1.050         1.285
  C12                        174.048         1.032         1.263
  C13                        213.520         1.061         1.261
  C14                        140.296         0.699         0.834
  C52                        361.823         0.333         0.127
  C130                        45.089         0.081         0.007
  C131                        44.257         0.080         0.007
  C139                         2.296         0.003         0.000
  C191                       217.601         0.754         0.854
  C193                       216.944         0.734         0.825
  C194                       214.611         0.728         0.823
  C195                       214.170         0.725         0.820
  C196                       205.957         0.753         0.853
  C197                       473.032         0.914         0.907
  C198                       623.149         0.999         0.949
  C199                       624.163         0.996         0.944
  C200                       623.159         0.992         0.940
  C201                       624.701         0.988         0.932
  C202                       634.967         0.987         0.930
  C203                       635.513         0.984         0.925
  C204                       631.972         0.981         0.924
  C205                       855.037         1.241         0.993
  C206                       958.294         1.339         1.027
  C207                       964.076         1.339         1.020
  C208                       979.797         1.340         1.015
  C209                       971.781         1.332         1.013
  C210                       972.137         1.330         1.010
  C211                       970.899         1.328         1.008
  C212                      1264.465         1.580         1.104
  C213                      1268.803         1.580         1.104
  C214                      1270.191         1.580         1.101
  C215                      1353.434         1.614         1.081
  C216                      1303.387         1.571         1.076
  C217                      1364.965         1.623         1.093
  C218                      1724.847         1.952         1.216
  C219                      1731.349         1.953         1.211
  C220                      1735.682         1.952         1.204
  C221                      1767.629         1.959         1.202
  C222                      1914.339         2.100         1.261
  C223                      2145.624         2.372         1.328
  C224                      2171.742         2.387         1.320
  C225                      2182.221         2.389         1.313
  C226                      2181.674         2.385         1.306
  C227                      2262.920         2.422         1.278
  C228                      2225.606         2.371         1.276
  C229                      2461.940         2.574         1.332
  C230                      2467.972         2.574         1.333
  C231                      2496.827         2.593         1.323
  C232                      2480.943         2.574         1.315
  C233                      2543.629         2.606         1.300
  C234                      2490.104         2.556         1.295
  C235                      2508.614         2.571         1.302
  C236                      2878.104         2.601         1.305
  C237                      2896.805         2.610         1.299
  C238                      3170.909         2.851         1.354
  C239                      3158.792         2.840         1.350
  C240                      3150.057         2.833         1.349
  C241                      3157.869         2.837         1.351
  C242                      3190.926         2.879         1.356
  C243                      3282.170         2.918         1.340
  C244                      3245.910         2.888         1.343
  C245                      3247.888         2.888         1.340
  C246                      4756.768         3.129         2.246
  C247                      4674.222         3.109         2.202
  C248                      4709.231         3.111         2.206
  C249                      4659.178         3.099         2.185
  C250                      4661.225         3.102         2.184
  C251                      4675.222         3.104         2.183
  C252                      4958.050         3.442         2.272
  C253                      4983.710         3.446         2.275
  C254                      4996.242         3.444         2.273
  C255                      4989.947         3.438         2.266
  C256                      5074.093         3.484         2.324
  C257                      5061.432         3.479         2.317
  C258                      5063.100         3.479         2.315
  C259                      5094.571         3.486         2.319
  C260                      5063.247         3.474         2.307
  C261                      5178.166         3.652         2.334
  C262                      5228.000         3.668         2.337
  C263                      5193.869         3.649         2.322
  C264                      5189.520         3.647         2.319
  C265                      5213.649         3.696         2.475
  C266                      5233.110         3.701         2.479
  C267                      5227.962         3.698         2.474
  C268                      5249.758         3.703         2.476
  C269                      5227.836         3.716         2.467
  C270                      5284.918         3.732         2.473
  C271                      5311.184         3.737         2.465
  C272                      5347.866         3.758         2.464
  C273                      5541.402         4.074         2.549
  C274                      5513.917         4.050         2.543
  C275                      5490.414         4.030         2.537
  C276                      5475.559         4.018         2.534
  C277                      5456.297         4.002         2.529
  C278                      5449.349         3.997         2.527
  C279                      5447.098         3.995         2.525
  C280                      5445.069         3.986         2.521
  C281                      5578.483         4.189         2.565
  C282                      5591.059         4.204         2.566
  C283                      5625.530         4.277         2.570
  C284                      5622.762         4.279         2.569
  C285                      5625.471         4.286         2.569
  C286                      5616.573         4.280         2.568
  C287                      5606.986         4.270         2.565
  C288                      5591.393         4.251         2.562
  C289                      5584.813         4.245         2.559
  C290                      5582.154         4.242         2.558
  C291                      5557.662         4.215         2.553
  C292                      5738.571         4.470         2.607
  C293                      5724.911         4.458         2.604
  C294                      5725.159         4.461         2.603
  C295                      5695.710         4.435         2.599
  C296                      5697.388         4.439         2.598
  C297                      5706.493         4.453         2.598
  C298                      5700.660         4.453         2.597
  C299                      5677.438         4.434         2.593
  C300                      5692.998         4.454         2.593
  C301                      5658.735         4.419         2.588
  C302                       175.031         1.044         1.279
  C303                       217.503         0.746         0.842
  C353                       150.334         0.222         0.051
  

  Analysis begun on:  Tue Oct 10 20:15:55 2017
  Analysis ended on:  Tue Oct 10 20:16:32 2017
  Total elapsed time: 00:00:37