
  EPA STORM WATER MANAGEMENT MODEL - VERSION 5.1 (Build 5.1.010)
  --------------------------------------------------------------

  WARNING 04: minimum elevation drop used for Conduit C199
  WARNING 04: minimum elevation drop used for Conduit C200
  WARNING 02: maximum depth increased for Node FID1955
  WARNING 02: maximum depth increased for Node FID1960
  WARNING 02: maximum depth increased for Node FID1965
  WARNING 02: maximum depth increased for Node FID1968
  WARNING 02: maximum depth increased for Node FID2244
  WARNING 02: maximum depth increased for Node FID2442
  WARNING 02: maximum depth increased for Node FID2446
  WARNING 02: maximum depth increased for Node FID5504
  WARNING 02: maximum depth increased for Node FID5527
  WARNING 02: maximum depth increased for Node AFID6926
  WARNING 02: maximum depth increased for Node AFID7376
  
  *********************************************************
  NOTE: The summary statistics displayed in this report are
  based on results found at every computational time step,  
  not just on results from each reporting time step.
  *********************************************************
  
  ****************
  Analysis Options
  ****************
  Flow Units ............... CMS
  Process Models:
    Rainfall/Runoff ........ YES
    RDII ................... NO
    Snowmelt ............... NO
    Groundwater ............ NO
    Flow Routing ........... YES
    Ponding Allowed ........ YES
    Water Quality .......... YES
  Infiltration Method ...... GREEN_AMPT
  Flow Routing Method ...... DYNWAVE
  Starting Date ............ MAY-06-2016 15:00:00
  Ending Date .............. MAY-07-2016 00:00:00
  Antecedent Dry Days ...... 0.0
  Report Time Step ......... 00:01:00
  Wet Time Step ............ 00:01:00
  Dry Time Step ............ 01:00:00
  Routing Time Step ........ 5.00 sec
  Variable Time Step ....... YES
  Maximum Trials ........... 8
  Number of Threads ........ 3
  Head Tolerance ........... 0.001500 m
  
  
  **************************        Volume         Depth
  Runoff Quantity Continuity     hectare-m            mm
  **************************     ---------       -------
  Total Precipitation ......         2.583         6.709
  Evaporation Loss .........         0.000         0.000
  Infiltration Loss ........         1.299         3.374
  Surface Runoff ...........         0.441         1.145
  Final Storage ............         0.844         2.192
  Continuity Error (%) .....        -0.029
  
  
  **************************           TSS            TP           TDP
  Runoff Quality Continuity             kg            kg            kg
  **************************    ----------    ----------    ----------
  Initial Buildup ..........         0.000         0.000         0.000
  Surface Buildup ..........     26628.107        14.990        14.162
  Wet Deposition ...........         0.000         0.000         0.000
  Sweeping Removal .........         0.000         0.000         0.000
  Infiltration Loss ........         0.000         0.000         0.000
  BMP Removal ..............         1.204         0.001         0.000
  Surface Runoff ...........     12038.299         6.267         4.580
  Remaining Buildup ........     14588.605         8.722         9.582
  Continuity Error (%) .....         0.000         0.000         0.000
  
  
  **************************        Volume        Volume
  Flow Routing Continuity        hectare-m      10^6 ltr
  **************************     ---------     ---------
  Dry Weather Inflow .......         0.000         0.000
  Wet Weather Inflow .......         0.441         4.410
  Groundwater Inflow .......         0.000         0.000
  RDII Inflow ..............         0.000         0.000
  External Inflow ..........         1.384        13.843
  External Outflow .........         1.187        11.871
  Flooding Loss ............         0.000         0.000
  Evaporation Loss .........         0.000         0.000
  Exfiltration Loss ........         0.000         0.000
  Initial Stored Volume ....         0.000         0.000
  Final Stored Volume ......         0.645         6.450
  Continuity Error (%) .....        -0.372
  
  
  **************************           TSS            TP           TDP
  Quality Routing Continuity            kg            kg            kg
  **************************    ----------    ----------    ----------
  Dry Weather Inflow .......         0.000         0.000         0.000
  Wet Weather Inflow .......     12032.816         5.971         4.531
  Groundwater Inflow .......         0.000         0.000         0.000
  RDII Inflow ..............         0.000         0.000         0.000
  External Inflow ..........       137.985         1.039         1.284
  External Outflow .........     11408.174         6.276         5.210
  Flooding Loss ............         0.000         0.000         0.000
  Exfiltration Loss ........         0.000         0.000         0.000
  Mass Reacted .............         0.000         0.000         0.000
  Initial Stored Mass ......         0.000         0.000         0.000
  Final Stored Mass ........        49.670         0.422         0.613
  Continuity Error (%) .....         5.858         4.457        -0.149
  
  
  *************************
  Highest Continuity Errors
  *************************
  Node FID2827 (6.43%)
  Node FID2824 (6.10%)
  Node J72 (2.04%)
  Node J19 (1.89%)
  Node J81 (1.86%)
  
  
  ***************************
  Time-Step Critical Elements
  ***************************
  Link C241 (90.52%)
  Link C14 (8.53%)
  
  
  ********************************
  Highest Flow Instability Indexes
  ********************************
  All links are stable.
  
  
  *************************
  Routing Time Step Summary
  *************************
  Minimum Time Step           :     0.66 sec
  Average Time Step           :     0.98 sec
  Maximum Time Step           :     5.00 sec
  Percent in Steady State     :     0.00
  Average Iterations per Step :     2.00
  Percent Not Converging      :     0.00
  
  
  ***************************
  Subcatchment Runoff Summary
  ***************************
  
  --------------------------------------------------------------------------------------------------------
                            Total      Total      Total      Total      Total       Total     Peak  Runoff
                           Precip      Runon       Evap      Infil     Runoff      Runoff   Runoff   Coeff
  Subcatchment                 mm         mm         mm         mm         mm    10^6 ltr      CMS
  --------------------------------------------------------------------------------------------------------
  S0                         5.84       0.00       0.00       5.10       0.18        0.00     0.00   0.031
  S1                         5.84       0.00       0.00       2.80       0.74        0.07     0.02   0.127
  S2                         6.35       0.00       0.00       2.21       1.01        0.17     0.04   0.158
  S3                         5.84       0.00       0.00       3.95       0.46        0.01     0.01   0.079
  S4                         5.84       0.00       0.00       2.98       0.70        0.07     0.04   0.120
  S6                         6.35       0.00       0.00       1.36       1.21        0.02     0.01   0.191
  S7                         6.35       0.00       0.00       1.55       2.48        0.97     0.36   0.391
  S8                         6.35       0.00       0.00       1.36       1.22        0.00     0.00   0.192
  S9                         6.35       0.00       0.00       2.04       1.05        0.00     0.00   0.166
  S10                        6.35       0.00       0.00       2.15       1.03        0.00     0.00   0.162
  S11                        6.35       0.00       0.00       5.08       0.31        0.00     0.00   0.049
  S12                        6.35       0.00       0.00       2.36       0.97        0.00     0.00   0.153
  S13                        6.35       0.00       0.00       2.60       0.91        0.07     0.02   0.144
  S14                        6.35       0.00       0.00       4.56       0.44        0.00     0.00   0.069
  S16                        6.35       0.00       0.00       1.37       0.98        0.05     0.01   0.154
  S17                        6.35       0.00       0.00       2.31       0.98        0.19     0.05   0.155
  S18                        6.35       0.00       0.00       1.70       1.14        0.00     0.00   0.179
  S19                        6.35       0.00       0.00       3.64       0.66        0.01     0.00   0.104
  S20                        6.35       0.00       0.00       2.46       0.95        0.01     0.00   0.149
  S21                        6.35       0.00       0.00       4.54       1.19        0.64     0.17   0.187
  S22                        6.35       0.00       0.00       1.98       1.07        0.00     0.00   0.168
  S23                        6.35       0.00       0.00       3.98       0.58        0.01     0.00   0.091
  S24                        6.35       0.00       0.00       3.78       0.63        0.01     0.00   0.099
  S25                        6.35       0.00       0.00       2.66       0.90        0.01     0.00   0.141
  S27                        6.35       0.00       0.00       2.99       0.82        0.00     0.00   0.129
  S28                        5.84       0.00       0.00       5.83       0.00        0.00     0.00   0.000
  S29                        5.84       0.00       0.00       5.80       0.01        0.00     0.00   0.002
  S30                        6.35       0.00       0.00       6.33       0.00        0.00     0.00   0.001
  S31                        6.35       0.00       0.00       6.34       0.00        0.00     0.00   0.000
  S32                        6.35       0.00       0.00       4.78       0.39        0.00     0.00   0.061
  S33                        6.35       0.00       0.00       1.81       1.11        0.01     0.01   0.174
  S34                        6.35       0.00       0.00       2.86       1.92        0.68     0.24   0.303
  S35                        6.35       0.00       0.00       3.76       0.63        0.00     0.00   0.100
  S36                        6.35       0.00       0.00       5.13       0.30        0.00     0.00   0.047
  S37                        6.35       0.00       0.00       2.11       1.03        0.01     0.00   0.163
  S39                        6.35       0.00       0.00       3.90       0.60        0.09     0.03   0.094
  S40                        6.35       0.00       0.00       4.53       0.44        0.01     0.00   0.070
  S41                        6.35       0.00       0.00       2.44       0.95        0.13     0.05   0.150
  S42                        6.35       0.00       0.00       2.81       0.86        0.09     0.03   0.136
  S43                        6.35       0.00       0.00       4.83       0.37        0.01     0.00   0.058
  S44                        6.35       0.00       0.00       2.88       0.85        0.19     0.07   0.133
  S45                        8.13       0.00       0.00       4.75       0.84        0.00     0.00   0.103
  S47                        8.13       0.00       0.00       3.73       1.09        0.05     0.03   0.134
  S48                        8.13       0.00       0.00       4.35       0.94        0.00     0.00   0.116
  S49                        8.13       0.00       0.00       3.87       1.04        0.19     0.11   0.128
  S51                        8.13       0.00       0.00       7.04       0.27        0.00     0.00   0.033
  S52                        8.13       0.00       0.00       4.17       0.97        0.07     0.05   0.120
  S53                        8.13       0.00       0.00       4.03       1.00        0.14     0.09   0.123
  S54                        8.13       0.00       0.00       5.03       0.76        0.07     0.02   0.093
  S55                        8.13       0.00       0.00       4.18       0.96        0.16     0.04   0.118
  S56                        8.13       0.00       0.00       6.00       0.52        0.00     0.00   0.064
  S57                        8.13       0.00       0.00       3.68       1.08        0.01     0.00   0.133
  S58                        8.13       0.00       0.00       4.50       0.88        0.04     0.01   0.109
  S59                        8.13       0.00       0.00       7.06       0.26        0.01     0.00   0.032
  S60                        8.13       0.00       0.00       5.90       0.54        0.01     0.00   0.067
  S61                        8.13       0.00       0.00       7.20       0.23        0.00     0.00   0.028
  S62                        8.13       0.00       0.00       6.74       0.34        0.01     0.01   0.042
  S63                        6.35       0.00       0.00       5.39       0.23        0.00     0.00   0.037
  S64                        6.35       0.00       0.00       3.06       0.80        0.01     0.00   0.127
  S65                        6.35       0.00       0.00       4.34       0.49        0.08     0.03   0.077
  
  
  ****************************
  Subcatchment Washoff Summary
  ****************************
  
  --------------------------------------------------------------
                                 TSS            TP           TDP
  Subcatchment                    kg            kg            kg
  --------------------------------------------------------------
  S0                           0.117         0.000         0.000
  S1                         424.603         0.229         0.033
  S2                         630.130         0.349         0.144
  S3                         143.961         0.078         0.004
  S4                         401.787         0.220         0.052
  S6                          81.124         0.047         0.009
  S7                         351.795         0.213         0.362
  S8                           0.283         0.000         0.000
  S9                           0.373         0.000         0.000
  S10                          7.455         0.005         0.002
  S11                          0.324         0.000         0.000
  S12                          0.203         0.000         0.000
  S13                        316.028         0.181         0.023
  S14                         16.603         0.004         0.007
  S16                        132.165         0.022         0.014
  S17                        691.038         0.376         0.191
  S18                          0.380         0.000         0.000
  S19                         58.264         0.022         0.046
  S20                         10.532         0.005         0.009
  S21                       1828.788         1.161         0.974
  S22                          2.570         0.002         0.002
  S23                         56.714         0.022         0.058
  S24                         76.014         0.042         0.007
  S25                         41.009         0.017         0.046
  S27                         12.766         0.007         0.012
  S28                          0.000         0.000         0.000
  S29                          0.000         0.000         0.000
  S30                          0.000         0.000         0.000
  S31                          0.000         0.000         0.000
  S32                         14.720         0.002         0.005
  S33                         33.231         0.018         0.016
  S34                       1176.688         0.539         0.074
  S35                          9.041         0.004         0.008
  S36                         39.654         0.003         0.008
  S37                         15.026         0.007         0.016
  S39                        523.391         0.244         0.234
  S40                         73.888         0.015         0.038
  S41                        495.357         0.279         0.107
  S42                        343.523         0.176         0.126
  S43                         67.306         0.008         0.024
  S44                        761.728         0.388         0.315
  S45                          0.937         0.000         0.001
  S47                        124.068         0.066         0.075
  S48                          5.098         0.003         0.005
  S49                        606.094         0.310         0.346
  S51                         36.932         0.010         0.026
  S52                        216.950         0.113         0.102
  S53                        492.818         0.272         0.132
  S54                        284.968         0.130         0.212
  S55                        524.916         0.255         0.332
  S56                          0.387         0.000         0.000
  S57                         28.514         0.011         0.031
  S58                        123.434         0.065         0.043
  S59                         13.291         0.031         0.001
  S60                         82.189         0.019         0.055
  S61                          6.385         0.002         0.001
  S62                         80.614         0.031         0.080
  S63                         25.161         0.013         0.003
  S64                         49.713         0.021         0.060
  S65                        497.252         0.232         0.110
  --------------------------------------------------------------
  System                   12038.299         6.267         4.580
  
  
  ******************
  Node Depth Summary
  ******************
  
  ---------------------------------------------------------------------------------
                                 Average  Maximum  Maximum  Time of Max    Reported
                                   Depth    Depth      HGL   Occurrence   Max Depth
  Node                 Type       Meters   Meters   Meters  days hr:min      Meters
  ---------------------------------------------------------------------------------
  FID1936              JUNCTION     0.15     0.27  1376.57     0  04:05        0.08
  FID1955              JUNCTION     0.15     0.24  1376.16     0  04:15        0.07
  FID1960              JUNCTION     0.15     0.21  1376.07     0  04:15        0.06
  FID1965              JUNCTION     0.14     0.20  1376.50     0  04:15        0.06
  FID1968              JUNCTION     0.14     0.18  1376.58     0  04:14        0.06
  FID2239              JUNCTION     0.14     0.24  1374.75     0  03:30        0.07
  FID2241              JUNCTION     0.13     0.18  1373.31     0  03:30        0.05
  FID2242              JUNCTION     0.14     0.19  1374.23     0  03:30        0.06
  FID2244              JUNCTION     0.13     0.17  1374.53     0  03:30        0.05
  FID2440              JUNCTION     0.40     0.49  1374.74     0  04:20        0.15
  FID2442              JUNCTION     0.00     0.00  1375.27     0  00:00        0.00
  FID2446              JUNCTION     0.15     0.30  1376.10     0  04:05        0.09
  FID2447              JUNCTION     0.15     0.28  1375.98     0  04:05        0.08
  FID2455              JUNCTION     0.31     0.41  1374.40     0  04:20        0.13
  FID2711              JUNCTION     0.14     0.20  1370.38     0  03:50        0.06
  FID2719              JUNCTION     0.15     0.29  1370.39     0  04:05        0.09
  FID2720              JUNCTION     0.15     0.28  1370.48     0  04:05        0.08
  FID2824              JUNCTION     0.12     0.17  1371.45     0  03:30        0.05
  FID2827              JUNCTION     0.13     0.20  1371.50     0  04:10        0.06
  FID2828              JUNCTION     0.14     0.20  1371.52     0  03:23        0.06
  FID2832              JUNCTION     0.15     0.23  1370.83     0  04:10        0.07
  FID2833              JUNCTION     0.19     0.33  1370.95     0  04:10        0.10
  FID2839              JUNCTION     0.18     0.33  1371.53     0  04:20        0.10
  FID2873              JUNCTION     0.15     0.22  1370.92     0  03:55        0.07
  FID2964              JUNCTION     0.15     0.23  1371.01     0  04:10        0.07
  FID2965              JUNCTION     0.40     0.70  1370.96     0  04:37        0.21
  FID4584              JUNCTION     0.11     0.16  1371.50     0  04:10        0.05
  FID5068              JUNCTION     0.13     0.18  1375.56     0  03:30        0.05
  FID5072              JUNCTION     0.48     0.62  1373.91     0  04:30        0.19
  FID5140              JUNCTION     0.16     0.30  1373.52     0  04:20        0.09
  FID5435              JUNCTION     0.17     0.28  1373.03     0  04:05        0.09
  FID5437              JUNCTION     0.13     0.17  1373.12     0  03:30        0.05
  FID5503              JUNCTION     0.12     0.16  1371.49     0  04:20        0.05
  FID5504              JUNCTION     0.15     0.20  1371.56     0  04:10        0.06
  FID5527              JUNCTION     0.14     0.18  1372.68     0  04:10        0.06
  FID5568              JUNCTION     0.46     0.66  1373.06     0  04:21        0.20
  FID5784              JUNCTION     0.47     0.67  1372.67     0  04:25        0.20
  FID5785              JUNCTION     0.14     0.20  1374.63     0  03:31        0.06
  AFID6926             JUNCTION     0.14     0.20  1370.00     0  04:15        0.06
  AFID7360             JUNCTION     0.45     0.79  1370.92     0  04:36        0.24
  AFID7363             JUNCTION     0.43     0.77  1370.94     0  04:36        0.23
  AFID7376             JUNCTION     0.17     0.27  1371.50     0  04:10        0.08
  AFID7377             JUNCTION     0.37     0.59  1371.27     0  04:35        0.18
  AFID7705             JUNCTION     0.52     0.56  1375.53     0  04:15        0.17
  AFID7706             JUNCTION     0.58     0.62  1375.53     0  04:15        0.19
  AFID7792             JUNCTION     0.16     0.28  1375.08     0  03:30        0.09
  AFID8223             JUNCTION     0.47     0.67  1372.67     0  04:25        0.20
  J1                   JUNCTION     0.77     0.78  1375.77     0  04:16        0.24
  FID4901              JUNCTION     0.49     0.52  1375.59     0  04:15        0.16
  J9                   JUNCTION     0.66     0.66  1375.76     0  04:16        0.20
  J11                  JUNCTION     0.50     0.51  1375.72     0  04:17        0.16
  J12                  JUNCTION     0.49     0.51  1375.63     0  04:16        0.16
  J13                  JUNCTION     0.49     0.51  1375.59     0  04:16        0.16
  FID4902              JUNCTION     0.50     0.53  1375.58     0  04:16        0.16
  J14                  JUNCTION     0.40     0.45  1375.37     0  04:05        0.14
  J15                  JUNCTION     0.36     0.44  1375.10     0  04:05        0.13
  J16                  JUNCTION     0.37     0.44  1375.08     0  04:05        0.13
  FID2449              JUNCTION     0.41     0.49  1374.81     0  04:11        0.15
  J17                  JUNCTION     0.30     0.41  1374.38     0  04:20        0.12
  J19                  JUNCTION     0.42     0.56  1374.10     0  04:25        0.17
  FID5069              JUNCTION     0.51     0.65  1373.90     0  04:30        0.20
  FID5139              JUNCTION     0.47     0.68  1373.04     0  04:21        0.21
  J24                  JUNCTION     0.47     0.68  1373.05     0  04:21        0.21
  FID4984              JUNCTION     0.49     0.69  1372.65     0  04:25        0.21
  FID2669              JUNCTION     0.32     0.59  1369.03     0  04:42        0.18
  FID2712              JUNCTION     0.35     0.62  1369.81     0  04:38        0.19
  FID2718              JUNCTION     0.35     0.63  1369.87     0  04:38        0.19
  FID2838              JUNCTION     0.53     0.89  1370.84     0  04:31        0.27
  FID2825              JUNCTION     0.58     0.95  1370.86     0  04:33        0.29
  FID2823              JUNCTION     0.61     1.00  1370.88     0  04:34        0.31
  FID5505              JUNCTION     0.51     0.87  1370.90     0  04:35        0.27
  FID5436              JUNCTION     0.49     0.72  1372.04     0  04:30        0.22
  FID5438              JUNCTION     0.42     0.65  1372.07     0  04:30        0.20
  J49                  JUNCTION     0.52     0.55  1375.57     0  04:16        0.17
  J50                  JUNCTION     0.55     0.59  1375.55     0  04:16        0.18
  J51                  JUNCTION     0.61     0.64  1375.54     0  04:15        0.20
  J52                  JUNCTION     0.62     0.66  1375.54     0  04:15        0.20
  J53                  JUNCTION     0.40     0.45  1375.37     0  04:05        0.14
  J54                  JUNCTION     0.40     0.45  1375.40     0  04:06        0.14
  J55                  JUNCTION     0.45     0.49  1375.52     0  04:15        0.15
  J56                  JUNCTION     0.43     0.47  1375.49     0  04:15        0.14
  J57                  JUNCTION     0.41     0.45  1375.47     0  04:09        0.14
  J58                  JUNCTION     0.40     0.45  1375.42     0  04:07        0.14
  FID1935              JUNCTION     0.40     0.46  1375.35     0  04:05        0.14
  J59                  JUNCTION     0.40     0.46  1375.33     0  04:05        0.14
  J60                  JUNCTION     0.39     0.45  1375.27     0  04:07        0.14
  J61                  JUNCTION     0.37     0.43  1375.20     0  04:08        0.13
  J62                  JUNCTION     0.36     0.42  1375.17     0  04:08        0.13
  J63                  JUNCTION     0.37     0.44  1375.13     0  04:07        0.13
  J64                  JUNCTION     0.36     0.43  1375.04     0  04:07        0.13
  J65                  JUNCTION     0.32     0.40  1374.98     0  04:09        0.12
  J66                  JUNCTION     0.40     0.48  1374.70     0  04:20        0.15
  J67                  JUNCTION     0.39     0.48  1374.63     0  04:21        0.15
  J68                  JUNCTION     0.37     0.46  1374.53     0  04:21        0.14
  J69                  JUNCTION     0.50     0.62  1374.35     0  04:20        0.19
  J70                  JUNCTION     0.48     0.61  1374.26     0  04:22        0.18
  J71                  JUNCTION     0.46     0.59  1374.18     0  04:23        0.18
  J72                  JUNCTION     0.49     0.63  1373.98     0  04:27        0.19
  J73                  JUNCTION     0.51     0.65  1373.87     0  04:30        0.20
  J74                  JUNCTION     0.51     0.65  1373.63     0  04:31        0.20
  J75                  JUNCTION     0.52     0.65  1373.49     0  04:36        0.20
  J76                  JUNCTION     0.47     0.68  1373.02     0  04:21        0.21
  J77                  JUNCTION     0.47     0.68  1372.88     0  04:22        0.21
  J78                  JUNCTION     0.47     0.68  1372.75     0  04:24        0.21
  J79                  JUNCTION     0.47     0.67  1372.68     0  04:25        0.20
  J80                  JUNCTION     0.40     0.61  1372.10     0  04:30        0.19
  J81                  JUNCTION     0.47     0.69  1371.69     0  04:33        0.21
  J82                  JUNCTION     0.46     0.68  1371.61     0  04:34        0.21
  J83                  JUNCTION     0.39     0.62  1371.42     0  04:35        0.19
  J84                  JUNCTION     0.35     0.56  1371.20     0  04:36        0.17
  J85                  JUNCTION     0.35     0.59  1371.11     0  04:37        0.18
  J86                  JUNCTION     0.37     0.64  1371.01     0  04:37        0.20
  J87                  JUNCTION     0.43     0.75  1370.94     0  04:36        0.23
  J88                  JUNCTION     0.50     0.85  1370.90     0  04:35        0.26
  J89                  JUNCTION     0.53     0.90  1370.89     0  04:35        0.28
  J90                  JUNCTION     0.50     0.87  1370.82     0  04:31        0.27
  J91                  JUNCTION     0.50     0.87  1370.75     0  04:32        0.26
  J92                  JUNCTION     0.49     0.87  1370.70     0  04:33        0.26
  J93                  JUNCTION     0.49     0.86  1370.59     0  04:34        0.26
  J94                  JUNCTION     0.49     0.86  1370.52     0  04:35        0.26
  J95                  JUNCTION     0.49     0.86  1370.49     0  04:35        0.26
  J96                  JUNCTION     0.48     0.84  1370.40     0  04:36        0.26
  J97                  JUNCTION     0.48     0.83  1370.33     0  04:37        0.25
  J98                  JUNCTION     0.46     0.81  1370.26     0  04:37        0.25
  J99                  JUNCTION     0.45     0.79  1370.19     0  04:38        0.24
  J100                 JUNCTION     0.44     0.77  1370.13     0  04:38        0.23
  J101                 JUNCTION     0.42     0.73  1370.05     0  04:38        0.22
  J102                 JUNCTION     0.35     0.63  1369.90     0  04:38        0.19
  J103                 JUNCTION     0.35     0.62  1369.85     0  04:38        0.19
  J104                 JUNCTION     0.34     0.61  1369.77     0  04:39        0.19
  J105                 JUNCTION     0.34     0.60  1369.73     0  04:39        0.18
  J106                 JUNCTION     0.33     0.59  1369.66     0  04:39        0.18
  J107                 JUNCTION     0.32     0.59  1369.52     0  04:40        0.18
  J108                 JUNCTION     0.32     0.59  1369.38     0  04:41        0.18
  J109                 JUNCTION     0.32     0.59  1369.27     0  04:41        0.18
  J110                 JUNCTION     0.32     0.59  1369.17     0  04:42        0.18
  J111                 JUNCTION     0.32     0.59  1369.07     0  04:42        0.18
  J112                 JUNCTION     0.32     0.59  1368.91     0  04:43        0.18
  J113                 JUNCTION     0.32     0.59  1368.81     0  04:43        0.18
  J114                 JUNCTION     0.32     0.59  1368.70     0  04:44        0.18
  J115                 JUNCTION     0.32     0.59  1368.64     0  04:44        0.18
  J116                 JUNCTION     0.32     0.59  1368.57     0  04:44        0.18
  J117                 JUNCTION     0.32     0.59  1368.47     0  04:45        0.18
  J118                 JUNCTION     0.33     0.59  1368.37     0  04:45        0.18
  J119                 JUNCTION     0.33     0.60  1368.30     0  04:45        0.18
  J120                 JUNCTION     0.36     0.61  1368.21     0  04:45        0.19
  FID2451              JUNCTION     0.40     0.48  1374.77     0  04:11        0.15
  J121                 JUNCTION     0.37     0.60  1371.34     0  04:35        0.18
  J122                 JUNCTION     0.37     0.60  1371.31     0  04:35        0.18
  FID3706              JUNCTION     0.49     0.86  1370.60     0  04:34        0.26
  FID2831              JUNCTION     0.49     0.86  1370.48     0  04:35        0.26
  FID2689              OUTFALL      0.20     0.37  1367.87     0  04:45        0.11
  
  
  *******************
  Node Inflow Summary
  *******************
  
  -------------------------------------------------------------------------------------------------
                                  Maximum  Maximum                  Lateral       Total        Flow
                                  Lateral    Total  Time of Max      Inflow      Inflow     Balance
                                   Inflow   Inflow   Occurrence      Volume      Volume       Error
  Node                 Type           CMS      CMS  days hr:min    10^6 ltr    10^6 ltr     Percent
  -------------------------------------------------------------------------------------------------
  FID1936              JUNCTION     0.046    0.046     0  04:05      0.0653      0.0653       0.261
  FID1955              JUNCTION     0.038    0.038     0  04:15       0.157       0.157       0.111
  FID1960              JUNCTION     0.017    0.017     0  04:15      0.0714      0.0714       0.243
  FID1965              JUNCTION     0.009    0.009     0  04:15       0.036       0.036       0.487
  FID1968              JUNCTION     0.003    0.003     0  04:15      0.0108      0.0108       1.637
  FID2239              JUNCTION     0.005    0.005     0  03:30       0.012       0.012       2.731
  FID2241              JUNCTION     0.000    0.004     0  03:30           0      0.0112       1.564
  FID2242              JUNCTION     0.004    0.004     0  03:30      0.0113      0.0113       1.610
  FID2244              JUNCTION     0.002    0.002     0  03:30     0.00439     0.00439       4.130
  FID2440              JUNCTION     0.000    0.620     0  04:05           0        12.7       0.332
  FID2442              JUNCTION     0.000    0.000     0  00:00           0           0       0.000 ltr
  FID2446              JUNCTION     0.033    0.033     0  04:05      0.0462      0.0462       1.969
  FID2447              JUNCTION     0.000    0.033     0  04:05           0      0.0453      -0.224
  FID2455              JUNCTION     0.032    0.633     0  04:20      0.0875        12.5       0.331
  FID2711              JUNCTION     0.000    0.010     0  03:50           0      0.0148       1.141
  FID2719              JUNCTION     0.042    0.042     0  04:05      0.0695      0.0695       0.373
  FID2720              JUNCTION     0.010    0.010     0  04:05       0.015       0.015       1.501
  FID2824              JUNCTION     0.000    0.001     0  04:10      0.0002     0.00272       6.496
  FID2827              JUNCTION     0.000    0.001     0  03:24    0.000226     0.00269       6.876
  FID2828              JUNCTION     0.001    0.001     0  03:30     0.00267     0.00267       8.407
  FID2832              JUNCTION     0.000    0.044     0  04:10           0       0.173       0.104
  FID2833              JUNCTION     0.044    0.044     0  04:10       0.174       0.174       0.151
  FID2839              JUNCTION     0.358    0.358     0  04:20        0.97        0.97       0.034
  FID2873              JUNCTION     0.006    0.006     0  04:10      0.0228      0.0228       1.282
  FID2964              JUNCTION     0.013    0.013     0  04:10      0.0544      0.0544       0.309
  FID2965              JUNCTION     0.000    0.937     0  04:38           0        11.8       0.490
  FID4584              JUNCTION     0.000    0.000     0  03:55           0    0.000211     394.617
  FID5068              JUNCTION     0.002    0.002     0  03:30      0.0054      0.0054       3.333
  FID5072              JUNCTION     0.033    0.659     0  04:20      0.0883        11.9       0.315
  FID5140              JUNCTION     0.243    0.243     0  04:20       0.679       0.679       0.021
  FID5435              JUNCTION     0.175    0.175     0  04:05       0.637       0.637       0.029
  FID5437              JUNCTION     0.001    0.001     0  03:30     0.00147     0.00147      13.420
  FID5503              JUNCTION     0.000    0.000     0  03:18    0.000214    0.000214     433.979
  FID5504              JUNCTION     0.018    0.018     0  04:10      0.0689      0.0689       0.289
  FID5527              JUNCTION     0.004    0.004     0  04:10      0.0142      0.0142       1.166
  FID5568              JUNCTION     0.001    0.654     0  04:33     0.00211        11.5       1.135
  FID5784              JUNCTION     0.000    0.840     0  04:22           0          12       0.151
  FID5785              JUNCTION     0.000    0.005     0  03:30           0      0.0117       1.336
  AFID6926             JUNCTION     0.018    0.018     0  04:15      0.0726      0.0726       0.240
  AFID7360             JUNCTION     0.000    0.941     0  04:40    0.000129        11.7       0.358
  AFID7363             JUNCTION     0.000    0.940     0  04:40           0        11.7       0.171
  AFID7376             JUNCTION     0.047    0.047     0  04:10       0.189       0.189       0.057
  AFID7377             JUNCTION     0.000    0.936     0  04:33           0        11.9       0.179
  AFID7705             JUNCTION     0.000    0.498     0  04:15           0        13.2       0.325
  AFID7706             JUNCTION     0.000    0.481     0  04:16           0        13.2       0.305
  AFID7792             JUNCTION     0.067    0.067     0  03:30       0.191       0.191       0.088
  AFID8223             JUNCTION     0.000    0.838     0  04:22           0        11.9       0.034
  J1                   JUNCTION     0.656    0.656     0  04:15          21          21       0.172
  FID4901              JUNCTION     0.000    0.444     0  04:15           0        13.6       0.278
  J9                   JUNCTION     0.000    0.661     0  00:01           0        20.9       0.354
  J11                  JUNCTION     0.000    0.656     0  04:15           0        20.9       0.634
  J12                  JUNCTION     0.002    0.656     0  04:22     0.00663        20.7       0.695
  J13                  JUNCTION    -0.220    0.658     0  04:34       -7.13        20.6      -0.210
  FID4902              JUNCTION     0.000    0.446     0  04:15           0        13.5       0.439
  J14                  JUNCTION     0.088    0.544     0  04:05        0.14          13       0.248
  J15                  JUNCTION     0.114    0.619     0  04:05       0.195        12.9       0.215
  J16                  JUNCTION     0.002    0.614     0  04:05     0.00271        12.9       0.216
  FID2449              JUNCTION     0.000    0.586     0  04:09    0.000391        12.7       1.716
  J17                  JUNCTION     0.048    0.661     0  04:20        0.13        12.6       0.169
  J19                  JUNCTION     0.004    0.652     0  04:22      0.0113        12.3       1.930
  FID5069              JUNCTION     0.000    0.658     0  04:20           0        11.9       0.279
  FID5139              JUNCTION     0.000    0.848     0  04:20           0        12.1       0.084
  J24                  JUNCTION     0.005    0.673     0  04:35      0.0128        11.4       0.127
  FID4984              JUNCTION     0.000    0.840     0  04:22           0          12       1.277
  FID2669              JUNCTION     0.000    1.105     0  04:41           0        12.1       0.122
  FID2712              JUNCTION     0.000    1.100     0  04:37           0        12.2       0.144
  FID2718              JUNCTION     0.000    1.099     0  04:37           0        12.2       0.103
  FID2838              JUNCTION     0.000    1.101     0  04:30           0        12.4       0.289
  FID2825              JUNCTION     0.000    0.956     0  04:42           0        11.5       0.486
  FID2823              JUNCTION     0.000    0.951     0  04:41           0        11.6       0.816
  FID5505              JUNCTION     0.000    0.947     0  04:40           0        11.6       0.223
  FID5436              JUNCTION     0.000    0.934     0  04:20           0        12.3       1.325
  FID5438              JUNCTION     0.000    0.827     0  04:27           0        11.7       0.233
  J49                  JUNCTION     0.000    0.446     0  04:20           0        13.5       0.710
  J50                  JUNCTION     0.000    0.447     0  04:20    7.96e-05        13.4       1.224
  J51                  JUNCTION     0.000    0.451     0  04:34           0        13.2       0.969
  J52                  JUNCTION     0.000    0.455     0  04:34           0        13.1       0.285
  J53                  JUNCTION     0.000    0.502     0  04:15           0        12.9       0.273
  J54                  JUNCTION     0.000    0.500     0  04:15           0          13       0.404
  J55                  JUNCTION     0.000    0.498     0  04:15           0        13.2       0.375
  J56                  JUNCTION     0.000    0.498     0  04:15           0        13.1       0.409
  J57                  JUNCTION     0.000    0.498     0  04:15           0        13.1       0.515
  J58                  JUNCTION     0.000    0.499     0  04:16     0.00195          13       0.552
  FID1935              JUNCTION     0.000    0.584     0  04:05           0          13       0.322
  J59                  JUNCTION     0.000    0.577     0  04:05           0          13       0.460
  J60                  JUNCTION     0.002    0.567     0  04:05     0.00273        12.9       0.719
  J61                  JUNCTION     0.000    0.550     0  04:06           0        12.9       0.484
  J62                  JUNCTION     0.000    0.547     0  04:08           0        12.8       0.220
  J63                  JUNCTION     0.000    0.548     0  04:08           0        12.8       0.223
  J64                  JUNCTION     0.000    0.608     0  04:05           0        12.9       0.227
  J65                  JUNCTION     0.006    0.608     0  04:05     0.00872        12.9       1.330
  J66                  JUNCTION     0.000    0.618     0  04:20           0        12.6       0.418
  J67                  JUNCTION     0.000    0.617     0  04:20           0        12.6       0.619
  J68                  JUNCTION     0.003    0.616     0  04:12     0.00713        12.5       0.661
  J69                  JUNCTION     0.000    0.660     0  04:20           0        12.6       0.680
  J70                  JUNCTION     0.001    0.657     0  04:20     0.00359        12.5       0.874
  J71                  JUNCTION     0.000    0.654     0  04:21           0        12.4       0.641
  J72                  JUNCTION     0.004    0.649     0  04:25      0.0097        12.1       2.083
  J73                  JUNCTION     0.000    0.657     0  04:20           0        11.9       0.648
  J74                  JUNCTION     0.000    0.656     0  04:30           0        11.8       0.948
  J75                  JUNCTION     0.001    0.655     0  04:30     0.00374        11.7       1.475
  J76                  JUNCTION     0.000    0.846     0  04:20           0        12.1       0.341
  J77                  JUNCTION     0.029    0.855     0  04:20      0.0822        12.1       0.631
  J78                  JUNCTION     0.000    0.846     0  04:21           0          12       0.472
  J79                  JUNCTION     0.000    0.841     0  04:22           0          12       0.172
  J80                  JUNCTION     0.004    0.831     0  04:26     0.00949        11.8       1.085
  J81                  JUNCTION     0.000    0.933     0  04:30     0.00166        12.1       1.898
  J82                  JUNCTION     0.000    0.925     0  04:32           0        11.9       0.760
  J83                  JUNCTION     0.000    0.923     0  04:34           0        11.8       0.598
  J84                  JUNCTION     0.000    0.936     0  04:34           0        11.9       0.324
  J85                  JUNCTION     0.000    0.935     0  04:35           0        11.9       0.594
  J86                  JUNCTION     0.000    0.934     0  04:37           0        11.8       0.637
  J87                  JUNCTION     0.001    0.939     0  04:39     0.00256        11.7       0.269
  J88                  JUNCTION     0.000    0.942     0  04:40           0        11.6       0.399
  J89                  JUNCTION     0.000    0.948     0  04:41           0        11.6       0.625
  J90                  JUNCTION     0.000    1.099     0  04:30           0        12.3       0.215
  J91                  JUNCTION     0.000    1.096     0  04:30           0        12.3       0.290
  J92                  JUNCTION     0.000    1.092     0  04:30    9.91e-07        12.3       0.372
  J93                  JUNCTION     0.000    1.088     0  04:33           0        12.2       0.204
  J94                  JUNCTION     0.000    1.087     0  04:33    1.83e-06        12.2       0.217
  J95                  JUNCTION     0.000    1.086     0  04:34           0        12.2       0.084
  J96                  JUNCTION     0.000    1.098     0  04:33           0        12.3       0.318
  J97                  JUNCTION     0.000    1.095     0  04:34           0        12.3       0.271
  J98                  JUNCTION     0.000    1.094     0  04:35           0        12.2       0.238
  J99                  JUNCTION     0.000    1.093     0  04:36           0        12.2       0.201
  J100                 JUNCTION     0.000    1.092     0  04:37           0        12.2       0.170
  J101                 JUNCTION     0.000    1.092     0  04:38           0        12.2       0.196
  J102                 JUNCTION     0.000    1.091     0  04:38           0        12.1       0.155
  J103                 JUNCTION     0.000    1.098     0  04:37           0        12.2       0.118
  J104                 JUNCTION     0.000    1.100     0  04:37           0        12.1       0.155
  J105                 JUNCTION     0.000    1.100     0  04:38           0        12.1       0.191
  J106                 JUNCTION     0.000    1.099     0  04:38           0        12.1       0.216
  J107                 JUNCTION     0.000    1.099     0  04:39           0        12.1       0.221
  J108                 JUNCTION     0.000    1.099     0  04:40    6.57e-06        12.1       0.198
  J109                 JUNCTION     0.000    1.098     0  04:40           0          12       0.168
  J110                 JUNCTION     0.000    1.098     0  04:41           0          12       0.164
  J111                 JUNCTION     0.000    1.098     0  04:41    5.91e-05          12       0.118
  J112                 JUNCTION     0.000    1.105     0  04:42           0          12       0.170
  J113                 JUNCTION     0.000    1.105     0  04:42           0          12       0.167
  J114                 JUNCTION     0.000    1.105     0  04:43           0          12       0.139
  J115                 JUNCTION     0.000    1.104     0  04:43           0          12       0.105
  J116                 JUNCTION     0.000    1.104     0  04:43    1.78e-06          12       0.140
  J117                 JUNCTION     0.000    1.104     0  04:44           0        11.9       0.172
  J118                 JUNCTION     0.000    1.104     0  04:44           0        11.9       0.149
  J119                 JUNCTION     0.000    1.104     0  04:45           0        11.9       0.153
  J120                 JUNCTION     0.000    1.104     0  04:45           0        11.9       0.177
  FID2451              JUNCTION     0.000    0.584     0  04:11           0        12.5       0.322
  J121                 JUNCTION     0.001    0.923     0  04:35     0.00502        11.8       0.176
  J122                 JUNCTION     0.000    0.922     0  04:35    0.000227        11.7       0.151
  FID3706              JUNCTION     0.000    1.091     0  04:31           0        12.2       0.287
  FID2831              JUNCTION     0.000    1.099     0  04:33           0        12.3       0.198
  FID2689              OUTFALL      0.000    1.104     0  04:45           0        11.9       0.000
  
  
  **********************
  Node Surcharge Summary
  **********************
  
  No nodes were surcharged.
  
  
  *********************
  Node Flooding Summary
  *********************
  
  No nodes were flooded.
  
  
  ***********************
  Outfall Loading Summary
  ***********************
  
  -----------------------------------------------------------------------------------------------------
                         Flow       Avg       Max       Total         Total         Total         Total
                         Freq      Flow      Flow      Volume           TSS            TP           TDP
  Outfall Node           Pcnt       CMS       CMS    10^6 ltr            kg            kg            kg
  -----------------------------------------------------------------------------------------------------
  FID2689               74.03     0.636     1.104      11.871     11329.346         5.914         4.768
  -----------------------------------------------------------------------------------------------------
  System                74.03     0.636     1.104      11.871     11329.346         5.914         4.768
  
  
  ********************
  Link Flow Summary
  ********************
  
  -----------------------------------------------------------------------------
                                 Maximum  Time of Max   Maximum    Max/    Max/
                                  |Flow|   Occurrence   |Veloc|    Full    Full
  Link                 Type          CMS  days hr:min     m/sec    Flow   Depth
  -----------------------------------------------------------------------------
  FID1123              CONDUIT     0.006     0  04:10      0.56    0.09    0.41
  FID1139              CONDUIT     0.041     0  04:05      1.08    0.28    0.37
  FID1148              CONDUIT     0.044     0  04:10      0.65    0.11    0.16
  FID1149              CONDUIT     0.044     0  04:10      1.63    0.01    0.24
  FID3364              CONDUIT     0.047     0  04:10      0.57    0.04    0.29
  FID3671              CONDUIT     0.003     0  04:14      0.75    0.02    0.09
  FID3672              CONDUIT     0.009     0  04:15      1.07    0.06    0.17
  FID3762              CONDUIT     0.017     0  04:15      0.51    0.05    0.36
  FID3765              CONDUIT     0.038     0  04:15      0.90    0.10    0.41
  FID4112              CONDUIT     0.046     0  04:05      1.20    0.08    0.19
  FID4186              CONDUIT     0.004     0  03:30      0.72    0.02    0.10
  FID4187              CONDUIT     0.004     0  03:30      1.12    0.01    0.07
  FID4201              CONDUIT     0.033     0  04:05      0.87    0.33    0.37
  FID4202              CONDUIT     0.033     0  04:05      1.01    0.23    0.33
  FID4203              CONDUIT     0.000     0  00:00      0.00    0.00    0.17
  FID4299              CONDUIT     0.002     0  03:30      0.68    0.01    0.06
  FID4372              CONDUIT     0.242     0  04:20      0.99    0.04    0.32
  FID4498              CONDUIT     0.013     0  04:10      0.47    0.06    0.58
  FID4806              CONDUIT     0.175     0  04:05      3.07    0.04    0.14
  FID4807              CONDUIT     0.001     0  03:30      0.52    0.00    0.04
  FID4882              CONDUIT     0.000     0  04:20      0.00    0.00    0.51
  FID4884              CONDUIT     0.018     0  04:10      1.27    0.01    0.08
  FID4914              CONDUIT     0.004     0  04:10      0.45    0.01    0.54
  FID4915              CONDUIT     0.001     0  03:24      0.16    0.02    0.11
  FID4916              CONDUIT     0.001     0  04:10      0.17    0.02    0.08
  FID4917              CONDUIT     0.001     0  04:10      0.59    0.00    0.48
  FID5307              CONDUIT     0.005     0  03:30      0.33    0.08    0.18
  FID5308              CONDUIT     0.002     0  03:30      0.82    0.01    0.07
  FID5312              CONDUIT     0.004     0  03:31      0.46    0.02    0.10
  FID5865              CONDUIT     0.358     0  04:20      3.81    0.12    0.29
  C9                   CHANNEL     0.661     0  00:01      0.58    0.09    0.51
  C12                  CHANNEL     0.655     0  04:22      0.39    0.39    0.60
  C13                  CHANNEL     0.658     0  04:34      0.53    0.39    0.60
  C14                  CHANNEL     0.439     0  04:35      0.53    0.26    0.60
  C52                  CONDUIT     0.067     0  03:30      0.74    0.10    0.36
  C130                 CONDUIT     0.010     0  03:50      0.39    0.17    0.21
  C131                 CONDUIT     0.010     0  04:05      1.17    0.02    0.27
  C139                 CONDUIT     0.000     0  03:55      0.03    0.00    0.18
  C191                 CHANNEL     0.446     0  04:20      0.41    0.26    0.63
  C193                 CHANNEL     0.451     0  04:34      0.32    0.27    0.72
  C194                 CHANNEL     0.455     0  04:34      0.26    0.27    0.76
  C195                 CHANNEL     0.456     0  04:34      0.30    0.12    0.60
  C196                 CONDUIT     0.444     0  04:20      0.38    0.43    0.66
  C197                 CONDUIT     0.481     0  04:16      0.21    0.30    0.84
  C198                 CHANNEL     0.498     0  04:15      0.23    0.13    0.50
  C199                 CHANNEL     0.498     0  04:15      0.25    2.92    0.58
  C200                 CHANNEL     0.498     0  04:15      0.28    2.64    0.55
  C201                 CHANNEL     0.499     0  04:16      0.26    0.20    0.45
  C202                 CHANNEL     0.500     0  04:15      0.28    0.20    0.45
  C203                 CHANNEL     0.502     0  04:15      0.27    0.20    0.45
  C204                 CHANNEL     0.503     0  04:15      0.40    0.20    0.45
  C205                 CONDUIT     0.539     0  04:05      0.26    0.50    0.56
  C206                 CHANNEL     0.577     0  04:05      0.32    0.23    0.46
  C207                 CHANNEL     0.566     0  04:05      0.29    0.22    0.45
  C208                 CHANNEL     0.550     0  04:06      0.29    0.22    0.44
  C209                 CHANNEL     0.547     0  04:08      0.30    0.22    0.43
  C210                 CHANNEL     0.548     0  04:08      0.36    0.22    0.49
  C211                 CHANNEL     0.550     0  04:09      0.36    0.27    0.45
  C212                 CONDUIT     0.612     0  04:05      0.29    0.48    0.53
  C213                 CHANNEL     0.608     0  04:05      0.39    0.30    0.44
  C214                 CHANNEL     0.604     0  04:05      0.44    0.29    0.42
  C215                 CONDUIT     0.586     0  04:09      0.27    0.46    0.54
  C216                 CONDUIT     0.583     0  04:11      0.34    0.58    0.46
  C217                 CONDUIT     0.584     0  04:11      0.29    0.31    0.35
  C218                 CHANNEL     0.618     0  04:20      0.34    0.30    0.50
  C219                 CHANNEL     0.617     0  04:20      0.35    0.30    0.49
  C220                 CHANNEL     0.615     0  04:12      0.36    0.30    0.48
  C221                 CHANNEL     0.616     0  04:22      0.39    0.30    0.44
  C222                 CONDUIT     0.632     0  04:20      0.36    0.57    0.50
  C223                 CHANNEL     0.660     0  04:20      1.26    0.11    0.45
  C224                 CHANNEL     0.657     0  04:20      0.35    0.57    0.71
  C225                 CHANNEL     0.654     0  04:21      0.35    0.57    0.69
  C226                 CHANNEL     0.652     0  04:22      0.45    0.57    0.67
  C227                 CONDUIT     0.648     0  04:25      0.27    0.71    0.72
  C228                 CHANNEL     0.648     0  04:25      0.45    0.36    0.58
  C229                 CONDUIT     0.657     0  04:20      0.20    0.15    0.42
  C230                 CHANNEL     0.657     0  04:20      0.47    0.36    0.60
  C231                 CHANNEL     0.656     0  04:30      0.43    0.36    0.60
  C232                 CHANNEL     0.655     0  04:31      0.47    0.36    0.60
  C233                 CHANNEL     0.654     0  04:33      0.43    0.36    0.60
  C234                 CONDUIT     0.672     0  04:35      0.31    0.37    0.49
  C235                 CHANNEL     0.675     0  04:35      0.45    0.37    0.63
  C236                 CHANNEL     0.846     0  04:20      0.47    0.54    0.71
  C237                 CHANNEL     0.839     0  04:21      0.47    0.54    0.71
  C238                 CHANNEL     0.846     0  04:21      0.48    0.54    0.70
  C239                 CHANNEL     0.841     0  04:22      0.48    0.54    0.70
  C240                 CHANNEL     0.838     0  04:22      0.52    0.53    0.70
  C241                 CHANNEL     0.838     0  04:22      0.60    0.54    0.70
  C242                 CONDUIT     0.839     0  04:22      0.40    0.39    0.56
  C243                 CHANNEL     0.830     0  04:26      0.49    0.53    0.68
  C244                 CHANNEL     0.827     0  04:27      0.72    0.18    0.40
  C245                 CONDUIT     0.827     0  04:32      0.38    0.31    0.53
  C246                 CHANNEL     0.931     0  04:30      0.40    0.40    0.62
  C247                 CHANNEL     0.925     0  04:32      0.41    0.40    0.60
  C248                 CHANNEL     0.923     0  04:34      0.44    0.40    0.57
  C249                 CHANNEL     0.922     0  04:35      3.08    0.50    0.57
  C250                 CONDUIT     0.922     0  04:35      0.49    0.45    0.47
  C251                 CONDUIT     0.923     0  04:36      0.49    0.45    0.47
  C252                 CHANNEL     0.936     0  04:34      6.41    0.51    0.55
  C253                 CHANNEL     0.935     0  04:35      0.57    0.29    0.54
  C254                 CHANNEL     0.934     0  04:37      0.64    0.29    0.58
  C255                 CHANNEL     0.934     0  04:39      0.38    0.29    0.64
  C256                 CHANNEL     0.939     0  04:39      0.38    0.29    0.69
  C257                 CHANNEL     0.940     0  04:40      2.03    0.29    0.72
  C258                 CONDUIT     0.940     0  04:40      0.39    0.46    0.61
  C259                 CHANNEL     0.942     0  04:40      0.39    0.29    0.78
  C260                 CHANNEL     0.944     0  04:41      0.37    0.29    0.82
  C261                 CHANNEL     0.948     0  04:41      2.35    0.29    0.84
  C262                 CHANNEL     0.951     0  04:41      0.63    0.29    0.90
  C263                 CHANNEL     0.955     0  04:42      0.30    0.30    0.62
  C264                 CONDUIT     0.958     0  04:43      0.34    0.67    0.67
  C265                 CHANNEL     1.099     0  04:30      0.41    0.34    0.56
  C266                 CHANNEL     1.096     0  04:30      0.45    0.29    0.61
  C267                 CHANNEL     1.092     0  04:30      0.45    0.29    0.61
  C268                 CHANNEL     1.089     0  04:31      0.45    0.29    0.60
  C269                 CHANNEL     1.088     0  04:33      0.45    0.29    0.60
  C270                 CHANNEL     1.087     0  04:33      0.45    0.29    0.60
  C271                 CHANNEL     1.086     0  04:34      0.45    0.29    0.60
  C272                 CHANNEL     1.086     0  04:34      0.45    0.29    0.60
  C273                 CHANNEL     1.098     0  04:33      0.47    0.29    0.59
  C274                 CHANNEL     1.095     0  04:34      0.48    0.29    0.58
  C275                 CHANNEL     1.094     0  04:35      0.49    0.29    0.57
  C276                 CHANNEL     1.093     0  04:36      0.51    0.29    0.56
  C277                 CHANNEL     1.092     0  04:37      0.54    0.29    0.54
  C278                 CHANNEL     1.092     0  04:38      0.57    0.29    0.52
  C279                 CHANNEL     1.091     0  04:38      0.67    0.29    0.48
  C280                 CHANNEL     1.092     0  04:39      0.51    0.50    0.64
  C281                 CHANNEL     1.098     0  04:37      0.52    0.50    0.64
  C282                 CHANNEL     1.098     0  04:37      0.52    0.50    0.63
  C283                 CHANNEL     1.100     0  04:37      0.53    0.50    0.63
  C284                 CHANNEL     1.100     0  04:38      0.54    0.50    0.62
  C285                 CHANNEL     1.099     0  04:38      0.55    0.50    0.61
  C286                 CHANNEL     1.099     0  04:39      0.65    0.36    0.60
  C287                 CHANNEL     1.099     0  04:40      0.65    0.36    0.60
  C288                 CHANNEL     1.098     0  04:40      0.65    0.36    0.60
  C289                 CHANNEL     1.098     0  04:41      0.65    0.36    0.60
  C290                 CHANNEL     1.098     0  04:41      0.65    0.36    0.60
  C291                 CHANNEL     1.098     0  04:41      0.64    0.36    0.60
  C292                 CHANNEL     1.105     0  04:42      0.65    0.36    0.60
  C293                 CHANNEL     1.105     0  04:42      0.65    0.36    0.60
  C294                 CHANNEL     1.105     0  04:43      0.65    0.36    0.60
  C295                 CHANNEL     1.104     0  04:43      0.65    0.36    0.60
  C296                 CHANNEL     1.104     0  04:43      0.65    0.36    0.60
  C297                 CHANNEL     1.104     0  04:44      0.64    0.36    0.60
  C298                 CHANNEL     1.104     0  04:44      0.64    0.36    0.60
  C299                 CHANNEL     1.104     0  04:45      0.63    0.36    0.61
  C300                 CHANNEL     1.104     0  04:45      0.62    0.36    0.62
  C301                 CHANNEL     1.104     0  04:45      1.02    0.26    0.38
  C302                 CHANNEL     0.656     0  04:15      0.50    0.13    0.46
  C303                 CHANNEL     0.447     0  04:20      0.36    0.26    0.66
  C353                 CONDUIT     0.018     0  04:15      1.23    0.01    0.06
  
  
  ***************************
  Flow Classification Summary
  ***************************
  
  -------------------------------------------------------------------------------------
                      Adjusted    ---------- Fraction of Time in Flow Class ---------- 
                       /Actual         Up    Down  Sub   Sup   Up    Down  Norm  Inlet 
  Conduit               Length    Dry  Dry   Dry   Crit  Crit  Crit  Crit  Ltd   Ctrl  
  -------------------------------------------------------------------------------------
  FID1123                 1.00   0.12  0.00  0.00  0.28  0.00  0.00  0.60  0.21  0.00
  FID1139                 1.00   0.13  0.00  0.00  0.11  0.00  0.00  0.76  0.08  0.00
  FID1148                 1.00   0.11  0.00  0.00  0.57  0.00  0.00  0.32  0.00  0.00
  FID1149                 1.00   0.12  0.00  0.00  0.72  0.02  0.00  0.14  0.59  0.00
  FID3364                 1.00   0.11  0.00  0.00  0.82  0.00  0.00  0.07  0.65  0.00
  FID3671                 1.00   0.15  0.00  0.00  0.00  0.00  0.00  0.85  0.00  0.00
  FID3672                 1.00   0.14  0.00  0.00  0.00  0.00  0.00  0.86  0.00  0.00
  FID3762                 1.00   0.02  0.12  0.00  0.86  0.00  0.00  0.00  0.68  0.00
  FID3765                 1.00   0.02  0.12  0.00  0.86  0.00  0.00  0.00  0.68  0.00
  FID4112                 1.00   0.13  0.00  0.00  0.00  0.00  0.00  0.87  0.00  0.00
  FID4186                 1.00   0.16  0.00  0.00  0.49  0.10  0.00  0.25  0.15  0.00
  FID4187                 1.00   0.20  0.00  0.00  0.00  0.00  0.00  0.80  0.00  0.00
  FID4201                 1.00   0.13  0.00  0.00  0.78  0.00  0.00  0.09  0.46  0.00
  FID4202                 1.00   0.14  0.00  0.00  0.00  0.00  0.00  0.86  0.00  0.00
  FID4203                 1.00   0.14  0.86  0.00  0.00  0.00  0.00  0.00  0.00  0.00
  FID4299                 1.00   0.17  0.00  0.00  0.00  0.00  0.00  0.83  0.00  0.00
  FID4372                 1.00   0.09  0.06  0.00  0.86  0.00  0.00  0.00  0.68  0.00
  FID4498                 1.00   0.12  0.00  0.00  0.80  0.00  0.00  0.08  0.63  0.00
  FID4806                 1.00   0.15  0.00  0.00  0.00  0.00  0.00  0.85  0.00  0.00
  FID4807                 1.00   0.21  0.00  0.00  0.00  0.00  0.00  0.79  0.00  0.00
  FID4882                 1.00   0.23  0.59  0.00  0.17  0.00  0.00  0.00  0.54  0.00
  FID4884                 1.00   0.11  0.00  0.00  0.14  0.02  0.00  0.72  0.12  0.00
  FID4914                 1.00   0.12  0.00  0.00  0.85  0.00  0.00  0.03  0.68  0.00
  FID4915                 1.00   0.16  0.01  0.00  0.78  0.00  0.00  0.05  0.59  0.00
  FID4916                 1.00   0.21  0.00  0.00  0.50  0.00  0.00  0.29  0.00  0.00
  FID4917                 1.00   0.22  0.13  0.00  0.62  0.00  0.00  0.03  0.60  0.00
  FID5307                 1.00   0.15  0.00  0.00  0.79  0.00  0.00  0.06  0.49  0.00
  FID5308                 1.00   0.19  0.00  0.00  0.00  0.00  0.00  0.81  0.00  0.00
  FID5312                 1.00   0.20  0.00  0.00  0.00  0.00  0.00  0.80  0.00  0.00
  FID5865                 1.00   0.11  0.00  0.00  0.17  0.14  0.00  0.57  0.23  0.00
  C9                      1.00   0.00  0.00  0.00  1.00  0.00  0.00  0.00  0.00  0.00
  C12                     1.00   0.00  0.00  0.00  1.00  0.00  0.00  0.00  0.00  0.00
  C13                     1.00   0.00  0.00  0.00  1.00  0.00  0.00  0.00  0.00  0.00
  C14                     1.00   0.00  0.00  0.00  1.00  0.00  0.00  0.00  0.00  0.00
  C52                     1.00   0.05  0.10  0.00  0.86  0.00  0.00  0.00  0.68  0.00
  C130                    1.00   0.14  0.00  0.00  0.63  0.00  0.00  0.24  0.00  0.00
  C131                    1.00   0.15  0.00  0.00  0.43  0.01  0.00  0.41  0.34  0.00
  C139                    1.00   0.11  0.60  0.00  0.24  0.00  0.05  0.00  0.54  0.00
  C191                    1.00   0.00  0.00  0.00  1.00  0.00  0.00  0.00  0.00  0.00
  C193                    1.00   0.00  0.00  0.00  1.00  0.00  0.00  0.00  0.00  0.00
  C194                    1.00   0.01  0.00  0.00  0.99  0.00  0.00  0.00  0.00  0.00
  C195                    1.00   0.01  0.00  0.00  0.99  0.00  0.00  0.00  0.00  0.00
  C196                    1.00   0.00  0.00  0.00  1.00  0.00  0.00  0.00  0.00  0.00
  C197                    1.00   0.01  0.00  0.00  0.99  0.00  0.00  0.00  0.00  0.00
  C198                    1.00   0.01  0.00  0.00  0.99  0.00  0.00  0.00  0.00  0.00
  C199                    1.00   0.01  0.00  0.00  0.99  0.00  0.00  0.00  0.00  0.00
  C200                    1.00   0.01  0.00  0.00  0.99  0.00  0.00  0.00  0.00  0.00
  C201                    1.00   0.01  0.00  0.00  0.99  0.00  0.00  0.00  0.00  0.00
  C202                    1.00   0.01  0.00  0.00  0.99  0.00  0.00  0.00  0.00  0.00
  C203                    1.00   0.02  0.00  0.00  0.98  0.00  0.00  0.00  0.00  0.00
  C204                    1.00   0.02  0.00  0.00  0.98  0.00  0.00  0.00  0.00  0.00
  C205                    1.00   0.02  0.00  0.00  0.98  0.00  0.00  0.00  0.00  0.00
  C206                    1.00   0.02  0.00  0.00  0.98  0.00  0.00  0.00  0.00  0.00
  C207                    1.00   0.02  0.00  0.00  0.98  0.00  0.00  0.00  0.00  0.00
  C208                    1.00   0.02  0.00  0.00  0.98  0.00  0.00  0.00  0.00  0.00
  C209                    1.00   0.02  0.00  0.00  0.98  0.00  0.00  0.00  0.00  0.00
  C210                    1.00   0.03  0.00  0.00  0.97  0.00  0.00  0.00  0.00  0.00
  C211                    1.00   0.03  0.00  0.00  0.97  0.00  0.00  0.00  0.00  0.00
  C212                    1.00   0.03  0.00  0.00  0.97  0.00  0.00  0.00  0.00  0.00
  C213                    1.00   0.03  0.00  0.00  0.97  0.00  0.00  0.00  0.00  0.00
  C214                    1.00   0.03  0.00  0.00  0.97  0.00  0.00  0.00  0.00  0.00
  C215                    1.00   0.03  0.00  0.00  0.97  0.00  0.00  0.00  0.51  0.00
  C216                    1.00   0.03  0.00  0.00  0.97  0.00  0.00  0.00  0.00  0.00
  C217                    1.00   0.03  0.00  0.00  0.97  0.00  0.00  0.00  0.00  0.00
  C218                    1.00   0.04  0.00  0.00  0.96  0.00  0.00  0.00  0.00  0.00
  C219                    1.00   0.04  0.00  0.00  0.96  0.00  0.00  0.00  0.00  0.00
  C220                    1.00   0.04  0.00  0.00  0.96  0.00  0.00  0.00  0.00  0.00
  C221                    1.00   0.05  0.00  0.00  0.95  0.00  0.00  0.00  0.00  0.00
  C222                    1.00   0.05  0.00  0.00  0.95  0.00  0.00  0.00  0.00  0.00
  C223                    1.00   0.05  0.00  0.00  0.95  0.00  0.00  0.00  0.01  0.00
  C224                    1.00   0.05  0.00  0.00  0.95  0.00  0.00  0.00  0.00  0.00
  C225                    1.00   0.05  0.00  0.00  0.95  0.00  0.00  0.00  0.00  0.00
  C226                    1.00   0.06  0.00  0.00  0.94  0.00  0.00  0.00  0.00  0.00
  C227                    1.00   0.06  0.00  0.00  0.94  0.00  0.00  0.00  0.00  0.00
  C228                    1.00   0.06  0.00  0.00  0.94  0.00  0.00  0.00  0.00  0.00
  C229                    1.00   0.07  0.00  0.00  0.93  0.00  0.00  0.00  0.00  0.00
  C230                    1.00   0.07  0.00  0.00  0.93  0.00  0.00  0.00  0.00  0.00
  C231                    1.00   0.07  0.00  0.00  0.93  0.00  0.00  0.00  0.00  0.00
  C232                    1.00   0.07  0.00  0.00  0.93  0.00  0.00  0.00  0.00  0.00
  C233                    1.00   0.08  0.00  0.00  0.92  0.00  0.00  0.00  0.05  0.00
  C234                    1.00   0.08  0.00  0.00  0.92  0.00  0.00  0.00  0.00  0.00
  C235                    1.00   0.08  0.00  0.00  0.92  0.00  0.00  0.00  0.00  0.00
  C236                    1.00   0.08  0.00  0.00  0.92  0.00  0.00  0.00  0.00  0.00
  C237                    1.00   0.08  0.00  0.00  0.92  0.00  0.00  0.00  0.00  0.00
  C238                    1.00   0.09  0.00  0.00  0.91  0.00  0.00  0.00  0.00  0.00
  C239                    1.00   0.09  0.00  0.00  0.91  0.00  0.00  0.00  0.00  0.00
  C240                    1.00   0.09  0.00  0.00  0.91  0.00  0.00  0.00  0.00  0.00
  C241                    1.00   0.09  0.00  0.00  0.91  0.00  0.00  0.00  0.00  0.00
  C242                    1.00   0.09  0.00  0.00  0.91  0.00  0.00  0.00  0.00  0.00
  C243                    1.00   0.09  0.00  0.00  0.91  0.00  0.00  0.00  0.00  0.00
  C244                    1.00   0.10  0.00  0.00  0.90  0.00  0.00  0.00  0.00  0.00
  C245                    1.00   0.10  0.00  0.00  0.90  0.00  0.00  0.00  0.00  0.00
  C246                    1.00   0.11  0.00  0.00  0.89  0.00  0.00  0.00  0.00  0.00
  C247                    1.00   0.11  0.00  0.00  0.89  0.00  0.00  0.00  0.00  0.00
  C248                    1.00   0.13  0.00  0.00  0.87  0.00  0.00  0.00  0.00  0.00
  C249                    1.00   0.11  0.04  0.00  0.85  0.00  0.00  0.00  0.01  0.00
  C250                    1.00   0.11  0.00  0.00  0.89  0.00  0.00  0.00  0.03  0.00
  C251                    1.00   0.11  0.00  0.00  0.89  0.00  0.00  0.00  0.01  0.00
  C252                    1.00   0.11  0.00  0.00  0.88  0.00  0.00  0.00  0.02  0.00
  C253                    1.00   0.12  0.00  0.00  0.88  0.00  0.00  0.00  0.00  0.00
  C254                    1.00   0.13  0.00  0.00  0.87  0.00  0.00  0.00  0.00  0.00
  C255                    1.00   0.12  0.04  0.00  0.84  0.00  0.00  0.00  0.02  0.00
  C256                    1.00   0.11  0.01  0.00  0.88  0.00  0.00  0.00  0.02  0.00
  C257                    1.00   0.11  0.00  0.00  0.89  0.01  0.00  0.00  0.01  0.00
  C258                    1.00   0.11  0.01  0.00  0.88  0.00  0.00  0.00  0.01  0.00
  C259                    1.00   0.11  0.00  0.00  0.89  0.00  0.00  0.00  0.06  0.00
  C260                    1.00   0.11  0.00  0.00  0.88  0.00  0.00  0.00  0.02  0.00
  C261                    1.00   0.11  0.00  0.00  0.88  0.00  0.00  0.00  0.03  0.00
  C262                    1.00   0.12  0.00  0.00  0.88  0.00  0.00  0.00  0.03  0.00
  C263                    1.00   0.11  0.00  0.00  0.89  0.00  0.00  0.00  0.00  0.00
  C264                    1.00   0.11  0.00  0.00  0.89  0.00  0.00  0.00  0.00  0.00
  C265                    1.00   0.11  0.00  0.00  0.88  0.00  0.00  0.00  0.00  0.00
  C266                    1.00   0.12  0.00  0.00  0.88  0.00  0.00  0.00  0.00  0.00
  C267                    1.00   0.12  0.05  0.00  0.83  0.00  0.00  0.00  0.00  0.00
  C268                    1.00   0.12  0.00  0.00  0.88  0.00  0.00  0.00  0.08  0.00
  C269                    1.00   0.12  0.00  0.00  0.88  0.00  0.00  0.00  0.00  0.00
  C270                    1.00   0.11  0.02  0.00  0.86  0.00  0.00  0.00  0.07  0.00
  C271                    1.00   0.11  0.00  0.00  0.89  0.00  0.00  0.00  0.01  0.00
  C272                    1.00   0.12  0.00  0.00  0.88  0.00  0.00  0.00  0.00  0.00
  C273                    1.00   0.12  0.00  0.00  0.88  0.00  0.00  0.00  0.03  0.00
  C274                    1.00   0.12  0.00  0.00  0.88  0.00  0.00  0.00  0.02  0.00
  C275                    1.00   0.13  0.00  0.00  0.87  0.00  0.00  0.00  0.01  0.00
  C276                    1.00   0.16  0.00  0.00  0.84  0.00  0.00  0.00  0.01  0.00
  C277                    1.00   0.18  0.00  0.00  0.82  0.00  0.00  0.00  0.00  0.00
  C278                    1.00   0.19  0.00  0.00  0.81  0.00  0.00  0.00  0.00  0.00
  C279                    1.00   0.14  0.07  0.00  0.79  0.00  0.00  0.00  0.01  0.00
  C280                    1.00   0.13  0.01  0.00  0.86  0.00  0.00  0.00  0.04  0.00
  C281                    1.00   0.13  0.00  0.00  0.87  0.00  0.00  0.00  0.04  0.00
  C282                    1.00   0.14  0.00  0.00  0.86  0.00  0.00  0.00  0.05  0.00
  C283                    1.00   0.14  0.00  0.00  0.86  0.00  0.00  0.00  0.03  0.00
  C284                    1.00   0.15  0.00  0.00  0.85  0.00  0.00  0.00  0.02  0.00
  C285                    1.00   0.16  0.00  0.00  0.84  0.00  0.00  0.00  0.00  0.00
  C286                    1.00   0.18  0.00  0.00  0.82  0.00  0.00  0.00  0.01  0.00
  C287                    1.00   0.13  0.06  0.00  0.81  0.00  0.00  0.00  0.00  0.00
  C288                    1.00   0.13  0.00  0.00  0.87  0.00  0.00  0.00  0.00  0.00
  C289                    1.00   0.23  0.00  0.00  0.77  0.00  0.00  0.00  0.00  0.00
  C290                    1.00   0.13  0.12  0.00  0.76  0.00  0.00  0.00  0.01  0.00
  C291                    1.00   0.13  0.00  0.00  0.87  0.00  0.00  0.00  0.06  0.00
  C292                    1.00   0.14  0.00  0.00  0.86  0.00  0.00  0.00  0.02  0.00
  C293                    1.00   0.15  0.00  0.00  0.85  0.00  0.00  0.00  0.02  0.00
  C294                    1.00   0.16  0.00  0.00  0.84  0.00  0.00  0.00  0.01  0.00
  C295                    1.00   0.17  0.00  0.00  0.83  0.00  0.00  0.00  0.01  0.00
  C296                    1.00   0.14  0.04  0.00  0.82  0.00  0.00  0.00  0.01  0.00
  C297                    1.00   0.14  0.00  0.00  0.86  0.00  0.00  0.00  0.01  0.00
  C298                    1.00   0.21  0.00  0.00  0.79  0.00  0.00  0.00  0.01  0.00
  C299                    1.00   0.22  0.00  0.00  0.78  0.00  0.00  0.00  0.01  0.00
  C300                    1.00   0.24  0.00  0.00  0.76  0.00  0.00  0.00  0.01  0.00
  C301                    1.00   0.25  0.00  0.00  0.75  0.00  0.00  0.00  0.00  0.00
  C302                    1.00   0.00  0.00  0.00  1.00  0.00  0.00  0.00  0.00  0.00
  C303                    1.00   0.00  0.00  0.00  1.00  0.00  0.00  0.00  0.00  0.00
  C353                    1.00   0.14  0.00  0.00  0.00  0.00  0.00  0.86  0.00  0.00
  
  
  *************************
  Conduit Surcharge Summary
  *************************
  
  ----------------------------------------------------------------------------
                                                           Hours        Hours 
                         --------- Hours Full --------   Above Full   Capacity
  Conduit                Both Ends  Upstream  Dnstream   Normal Flow   Limited
  ----------------------------------------------------------------------------
  FID4498                     0.01      0.01      1.09      0.01         0.01
  FID4882                     0.01      0.01      1.71      0.01         0.01
  FID4914                     0.01      0.01      2.49      0.01         0.01
  C199                        0.01      0.01      0.01      8.52         0.01
  C200                        0.01      0.01      0.01      8.47         0.01
  
  
  ***************************
  Link Pollutant Load Summary
  ***************************
  
  --------------------------------------------------------------
                                 TSS            TP           TDP
  Link                            kg            kg            kg
  --------------------------------------------------------------
  FID1123                     78.251         0.043         0.009
  FID1139                    394.330         0.207         0.052
  FID1148                    625.461         0.343         0.144
  FID1149                    624.744         0.340         0.144
  FID3364                    698.378         0.392         0.193
  FID3671                     25.927         0.011         0.030
  FID3672                    122.856         0.062         0.043
  FID3762                    284.743         0.128         0.212
  FID3765                    524.541         0.252         0.332
  FID4112                    210.174         0.110         0.101
  FID4186                     38.898         0.017         0.046
  FID4187                     36.058         0.017         0.046
  FID4201                    108.402         0.062         0.073
  FID4202                     97.845         0.061         0.071
  FID4203                      0.000         0.000         0.000
  FID4299                     10.594         0.006         0.015
  FID4372                   1113.216         0.542         0.074
  FID4498                    142.488         0.022         0.014
  FID4806                   1823.671         0.921         0.925
  FID4807                      0.000         0.001         0.001
  FID4882                      0.048         0.000         0.000
  FID4884                    315.631         0.176         0.023
  FID4914                     58.046         0.023         0.046
  FID4915                      2.349         0.003         0.002
  FID4916                      0.090         0.002         0.002
  FID4917                      0.016         0.002         0.002
  FID5307                     66.621         0.036         0.007
  FID5308                      8.517         0.006         0.011
  FID5312                     61.261         0.033         0.007
  FID5865                    351.796         0.213         0.362
  C9                         219.831         1.054         1.333
  C12                        218.180         1.036         1.309
  C13                        230.268         1.058         1.304
  C14                        151.396         0.695         0.861
  C52                        758.948         0.382         0.315
  C130                       120.658         0.073         0.004
  C131                       117.327         0.069         0.004
  C139                         0.012         0.000         0.000
  C191                       299.574         0.761         0.923
  C193                       298.577         0.739         0.895
  C194                       296.899         0.734         0.891
  C195                       296.527         0.731         0.888
  C196                       274.049         0.754         0.898
  C197                       820.973         0.981         1.216
  C198                      1105.424         1.106         1.425
  C199                      1106.354         1.102         1.420
  C200                      1105.357         1.098         1.416
  C201                      1106.735         1.093         1.408
  C202                      1110.699         1.090         1.404
  C203                      1111.005         1.087         1.399
  C204                      1108.293         1.085         1.398
  C205                      1604.347         1.354         1.526
  C206                      1813.162         1.462         1.624
  C207                      1819.536         1.458         1.618
  C208                      1857.860         1.462         1.636
  C209                      1851.691         1.458         1.633
  C210                      1851.778         1.456         1.630
  C211                      1850.809         1.454         1.628
  C212                      2456.759         1.761         1.971
  C213                      2461.113         1.761         1.974
  C214                      2462.365         1.760         1.972
  C215                      2592.520         1.788         2.039
  C216                      2554.748         1.771         2.027
  C217                      2653.292         1.829         2.095
  C218                      3410.056         2.209         2.406
  C219                      3416.072         2.206         2.402
  C220                      3419.498         2.202         2.395
  C221                      3489.805         2.205         2.412
  C222                      3816.496         2.374         2.534
  C223                      4316.716         2.648         2.638
  C224                      4341.801         2.649         2.632
  C225                      4355.205         2.653         2.626
  C226                      4355.618         2.649         2.620
  C227                      4468.750         2.669         2.654
  C228                      4490.141         2.661         2.682
  C229                      5012.907         2.896         2.912
  C230                      5021.352         2.900         2.925
  C231                      5044.091         2.900         2.917
  C232                      5032.588         2.891         2.908
  C233                      5115.984         2.889         2.897
  C234                      5092.082         2.886         2.904
  C235                      5123.865         2.902         2.919
  C236                      6235.218         3.444         2.992
  C237                      6254.224         3.445         2.984
  C238                      6749.909         3.659         3.087
  C239                      6736.400         3.653         3.084
  C240                      6726.386         3.651         3.084
  C241                      6734.358         3.656         3.095
  C242                      6802.931         3.688         3.099
  C243                      6910.998         3.712         3.117
  C244                      6907.450         3.718         3.179
  C245                      6909.977         3.717         3.176
  C246                      8853.546         4.657         4.088
  C247                      8819.770         4.650         4.116
  C248                      8850.559         4.651         4.110
  C249                      8809.021         4.640         4.101
  C250                      8814.432         4.644         4.108
  C251                      8838.950         4.663         4.108
  C252                      9522.129         5.031         4.298
  C253                      9547.888         5.029         4.295
  C254                      9565.744         5.003         4.291
  C255                      9565.355         4.991         4.285
  C256                      9692.722         4.998         4.293
  C257                      9674.946         4.988         4.294
  C258                      9678.340         4.988         4.292
  C259                      9734.110         4.999         4.292
  C260                      9687.193         4.992         4.284
  C261                     1.002e+04         5.159         4.305
  C262                     1.018e+04         5.250         4.303
  C263                     1.013e+04         5.136         4.303
  C264                     1.039e+04         5.143         4.322
  C265                     1.034e+04         5.330         4.636
  C266                     1.040e+04         5.336         4.642
  C267                     1.036e+04         5.333         4.635
  C268                     1.040e+04         5.339         4.636
  C269                     1.034e+04         5.352         4.624
  C270                     1.048e+04         5.369         4.630
  C271                     1.058e+04         5.389         4.628
  C272                     1.065e+04         5.404         4.635
  C273                     1.104e+04         5.701         4.774
  C274                     1.097e+04         5.676         4.764
  C275                     1.092e+04         5.656         4.755
  C276                     1.089e+04         5.643         4.749
  C277                     1.085e+04         5.626         4.741
  C278                     1.084e+04         5.617         4.738
  C279                     1.084e+04         5.608         4.735
  C280                     1.090e+04         5.605         4.729
  C281                     1.119e+04         5.791         4.777
  C282                     1.122e+04         5.799         4.780
  C283                     1.130e+04         5.862         4.781
  C284                     1.128e+04         5.860         4.781
  C285                     1.129e+04         5.860         4.781
  C286                     1.126e+04         5.847         4.778
  C287                     1.124e+04         5.833         4.774
  C288                     1.119e+04         5.813         4.768
  C289                     1.116e+04         5.799         4.765
  C290                     1.114e+04         5.791         4.763
  C291                     1.109e+04         5.772         4.754
  C292                     1.156e+04         6.010         4.792
  C293                     1.152e+04         5.995         4.788
  C294                     1.152e+04         5.993         4.788
  C295                     1.144e+04         5.967         4.781
  C296                     1.145e+04         5.966         4.781
  C297                     1.147e+04         5.970         4.782
  C298                     1.145e+04         5.962         4.780
  C299                     1.139e+04         5.941         4.775
  C300                     1.144e+04         5.954         4.778
  C301                     1.133e+04         5.914         4.768
  C302                       219.197         1.048         1.327
  C303                       299.223         0.752         0.912
  C353                       424.317         0.223         0.033
  

  Analysis begun on:  Tue Oct 10 16:54:51 2017
  Analysis ended on:  Tue Oct 10 16:55:05 2017
  Total elapsed time: 00:00:14