
  EPA STORM WATER MANAGEMENT MODEL - VERSION 5.1 (Build 5.1.010)
  --------------------------------------------------------------

  WARNING 04: minimum elevation drop used for Conduit C199
  WARNING 04: minimum elevation drop used for Conduit C200
  WARNING 02: maximum depth increased for Node FID1955
  WARNING 02: maximum depth increased for Node FID1960
  WARNING 02: maximum depth increased for Node FID1965
  WARNING 02: maximum depth increased for Node FID1968
  WARNING 02: maximum depth increased for Node FID2244
  WARNING 02: maximum depth increased for Node FID2442
  WARNING 02: maximum depth increased for Node FID2446
  WARNING 02: maximum depth increased for Node FID5504
  WARNING 02: maximum depth increased for Node FID5527
  WARNING 02: maximum depth increased for Node AFID6926
  WARNING 02: maximum depth increased for Node AFID7376
  
  *********************************************************
  NOTE: The summary statistics displayed in this report are
  based on results found at every computational time step,  
  not just on results from each reporting time step.
  *********************************************************
  
  ****************
  Analysis Options
  ****************
  Flow Units ............... CMS
  Process Models:
    Rainfall/Runoff ........ YES
    RDII ................... NO
    Snowmelt ............... NO
    Groundwater ............ NO
    Flow Routing ........... YES
    Ponding Allowed ........ YES
    Water Quality .......... YES
  Infiltration Method ...... GREEN_AMPT
  Flow Routing Method ...... DYNWAVE
  Starting Date ............ MAY-06-2016 15:00:00
  Ending Date .............. MAY-07-2016 00:00:00
  Antecedent Dry Days ...... 0.0
  Report Time Step ......... 00:01:00
  Wet Time Step ............ 00:01:00
  Dry Time Step ............ 01:00:00
  Routing Time Step ........ 5.00 sec
  Variable Time Step ....... YES
  Maximum Trials ........... 8
  Number of Threads ........ 3
  Head Tolerance ........... 0.001500 m
  
  
  **************************        Volume         Depth
  Runoff Quantity Continuity     hectare-m            mm
  **************************     ---------       -------
  Total Precipitation ......         2.583         6.709
  Evaporation Loss .........         0.000         0.000
  Infiltration Loss ........         1.411         3.665
  Surface Runoff ...........         0.770         2.000
  Final Storage ............         0.403         1.046
  Continuity Error (%) .....        -0.031
  
  
  **************************           TSS            TP           TDP
  Runoff Quality Continuity             kg            kg            kg
  **************************    ----------    ----------    ----------
  Initial Buildup ..........         0.000         0.000         0.000
  Surface Buildup ..........     10661.927         4.468         7.172
  Wet Deposition ...........         0.000         0.000         0.000
  Sweeping Removal .........         0.000         0.000         0.000
  Infiltration Loss ........         0.000         0.000         0.000
  BMP Removal ..............         0.600         0.000         0.000
  Surface Runoff ...........      5996.095         2.431         3.479
  Remaining Buildup ........      4665.232         2.036         3.693
  Continuity Error (%) .....         0.000         0.000         0.000
  
  
  **************************        Volume        Volume
  Flow Routing Continuity        hectare-m      10^6 ltr
  **************************     ---------     ---------
  Dry Weather Inflow .......         0.000         0.000
  Wet Weather Inflow .......         0.770         7.701
  Groundwater Inflow .......         0.000         0.000
  RDII Inflow ..............         0.000         0.000
  External Inflow ..........         1.384        13.843
  External Outflow .........         1.685        16.849
  Flooding Loss ............         0.000         0.000
  Evaporation Loss .........         0.000         0.000
  Exfiltration Loss ........         0.000         0.000
  Initial Stored Volume ....         0.000         0.000
  Final Stored Volume ......         0.474         4.744
  Continuity Error (%) .....        -0.228
  
  
  **************************           TSS            TP           TDP
  Quality Routing Continuity            kg            kg            kg
  **************************    ----------    ----------    ----------
  Dry Weather Inflow .......         0.000         0.000         0.000
  Wet Weather Inflow .......      5827.958         2.427         3.427
  Groundwater Inflow .......         0.000         0.000         0.000
  RDII Inflow ..............         0.000         0.000         0.000
  External Inflow ..........       137.985         1.039         1.284
  External Outflow .........      5842.582         3.165         4.293
  Flooding Loss ............         0.000         0.000         0.000
  Exfiltration Loss ........         0.000         0.000         0.000
  Mass Reacted .............         0.000         0.000         0.000
  Initial Stored Mass ......         0.000         0.000         0.000
  Final Stored Mass ........        36.992         0.315         0.434
  Continuity Error (%) .....         1.448        -0.398        -0.357
  
  
  *************************
  Highest Continuity Errors
  *************************
  Node FID2824 (2.10%)
  Node FID2827 (2.05%)
  Node J72 (1.22%)
  Node J81 (1.14%)
  Node FID2449 (1.13%)
  
  
  ***************************
  Time-Step Critical Elements
  ***************************
  Link C241 (93.50%)
  Link C14 (5.77%)
  
  
  ********************************
  Highest Flow Instability Indexes
  ********************************
  All links are stable.
  
  
  *************************
  Routing Time Step Summary
  *************************
  Minimum Time Step           :     0.61 sec
  Average Time Step           :     0.94 sec
  Maximum Time Step           :     5.00 sec
  Percent in Steady State     :     0.00
  Average Iterations per Step :     2.00
  Percent Not Converging      :     0.00
  
  
  ***************************
  Subcatchment Runoff Summary
  ***************************
  
  --------------------------------------------------------------------------------------------------------
                            Total      Total      Total      Total      Total       Total     Peak  Runoff
                           Precip      Runon       Evap      Infil     Runoff      Runoff   Runoff   Coeff
  Subcatchment                 mm         mm         mm         mm         mm    10^6 ltr      CMS
  --------------------------------------------------------------------------------------------------------
  S0                         5.84       0.00       0.00       5.17       0.48        0.00     0.00   0.082
  S1                         5.84       0.00       0.00       3.05       1.95        0.19     0.06   0.334
  S2                         6.35       0.00       0.00       2.59       2.71        0.47     0.14   0.427
  S3                         5.84       0.00       0.00       4.11       1.22        0.04     0.03   0.209
  S4                         5.84       0.00       0.00       3.23       1.84        0.18     0.11   0.315
  S6                         6.35       0.00       0.00       1.81       3.27        0.06     0.02   0.515
  S7                         6.35       0.00       0.00       2.74       2.93        1.15     0.31   0.462
  S8                         6.35       0.00       0.00       1.82       3.29        0.00     0.00   0.518
  S9                         6.35       0.00       0.00       2.43       2.84        0.00     0.00   0.448
  S10                        6.35       0.00       0.00       2.53       2.77        0.01     0.00   0.437
  S11                        6.35       0.00       0.00       5.20       0.84        0.00     0.00   0.133
  S12                        6.35       0.00       0.00       2.73       2.63        0.00     0.00   0.415
  S13                        6.35       0.00       0.00       2.94       2.46        0.19     0.06   0.387
  S14                        6.35       0.00       0.00       4.73       1.18        0.01     0.00   0.186
  S16                        6.35       0.00       0.00       0.97       0.29        0.02     0.00   0.045
  S17                        6.35       0.00       0.00       2.67       2.64        0.51     0.15   0.416
  S18                        6.35       0.00       0.00       2.12       3.07        0.00     0.00   0.484
  S19                        6.35       0.00       0.00       3.89       1.78        0.04     0.01   0.281
  S20                        6.35       0.00       0.00       2.82       2.57        0.01     0.00   0.404
  S21                        6.35       0.00       0.00       3.80       0.77        0.41     0.14   0.121
  S22                        6.35       0.00       0.00       2.38       2.88        0.00     0.00   0.454
  S23                        6.35       0.00       0.00       4.20       1.56        0.03     0.01   0.246
  S24                        6.35       0.00       0.00       4.01       1.69        0.03     0.01   0.267
  S25                        6.35       0.00       0.00       3.00       2.42        0.03     0.01   0.382
  S27                        6.35       0.00       0.00       3.30       2.22        0.01     0.00   0.349
  S28                        5.84       0.00       0.00       5.83       0.01        0.00     0.00   0.001
  S29                        5.84       0.00       0.00       5.80       0.03        0.00     0.00   0.005
  S30                        6.35       0.00       0.00       6.33       0.01        0.00     0.00   0.002
  S31                        6.35       0.00       0.00       6.34       0.01        0.00     0.00   0.001
  S32                        6.35       0.00       0.00       4.92       1.04        0.00     0.00   0.164
  S33                        6.35       0.00       0.00       2.23       2.99        0.03     0.01   0.471
  S34                        6.35       0.00       0.00       3.61       1.22        0.43     0.12   0.192
  S35                        6.35       0.00       0.00       4.00       1.71        0.01     0.00   0.269
  S36                        6.35       0.00       0.00       5.24       0.81        0.01     0.00   0.127
  S37                        6.35       0.00       0.00       2.50       2.79        0.01     0.00   0.440
  S39                        6.35       0.00       0.00       4.13       1.61        0.24     0.08   0.254
  S40                        6.35       0.00       0.00       4.70       1.20        0.03     0.01   0.188
  S41                        6.35       0.00       0.00       2.80       2.57        0.35     0.11   0.405
  S42                        6.35       0.00       0.00       3.13       2.33        0.24     0.07   0.366
  S43                        6.35       0.00       0.00       4.97       1.00        0.02     0.01   0.157
  S44                        6.35       0.00       0.00       3.19       2.28        0.51     0.15   0.359
  S45                        8.13       0.00       0.00       5.11       2.40        0.00     0.00   0.295
  S47                        8.13       0.00       0.00       4.20       3.10        0.13     0.10   0.381
  S48                        8.13       0.00       0.00       4.75       2.68        0.01     0.01   0.330
  S49                        8.13       0.00       0.00       4.32       2.98        0.56     0.30   0.366
  S51                        8.13       0.00       0.00       7.16       0.77        0.01     0.01   0.095
  S52                        8.13       0.00       0.00       4.59       2.78        0.19     0.14   0.342
  S53                        8.13       0.00       0.00       4.46       2.87        0.40     0.24   0.353
  S54                        8.13       0.00       0.00       5.36       2.17        0.20     0.06   0.267
  S55                        8.13       0.00       0.00       4.60       2.75        0.45     0.13   0.339
  S56                        8.13       0.00       0.00       6.23       1.49        0.00     0.00   0.184
  S57                        8.13       0.00       0.00       4.15       3.11        0.03     0.01   0.383
  S58                        8.13       0.00       0.00       4.89       2.54        0.10     0.03   0.312
  S59                        8.13       0.00       0.00       7.17       0.75        0.02     0.01   0.092
  S60                        8.13       0.00       0.00       6.14       1.55        0.04     0.01   0.191
  S61                        8.13       0.00       0.00       7.30       0.65        0.01     0.00   0.080
  S62                        8.13       0.00       0.00       6.89       0.98        0.02     0.02   0.120
  S63                        6.35       0.00       0.00       5.48       0.63        0.01     0.00   0.099
  S64                        6.35       0.00       0.00       3.36       2.17        0.03     0.01   0.342
  S65                        6.35       0.00       0.00       4.53       1.32        0.22     0.07   0.207
  
  
  ****************************
  Subcatchment Washoff Summary
  ****************************
  
  --------------------------------------------------------------
                                 TSS            TP           TDP
  Subcatchment                    kg            kg            kg
  --------------------------------------------------------------
  S0                           0.124         0.000         0.000
  S1                          91.921         0.008         0.027
  S2                         146.241         0.033         0.073
  S3                          29.435         0.005         0.008
  S4                          91.094         0.014         0.026
  S6                          15.760         0.001         0.004
  S7                        1827.268         0.295         0.330
  S8                           0.204         0.000         0.000
  S9                           0.239         0.000         0.000
  S10                          2.899         0.001         0.001
  S11                          0.262         0.000         0.000
  S12                          0.138         0.000         0.000
  S13                         62.821         0.006         0.018
  S14                          4.410         0.003         0.008
  S16                        110.628         0.005         0.025
  S17                        160.555         0.040         0.097
  S18                          0.236         0.000         0.000
  S19                         14.901         0.009         0.026
  S20                          4.245         0.003         0.004
  S21                       1145.168         0.860         0.764
  S22                          1.604         0.001         0.001
  S23                          9.340         0.008         0.031
  S24                         18.301         0.004         0.007
  S25                          7.644         0.005         0.021
  S27                          4.818         0.003         0.006
  S28                          0.000         0.000         0.000
  S29                          0.000         0.000         0.000
  S30                          0.000         0.000         0.000
  S31                          0.000         0.000         0.000
  S32                          2.636         0.002         0.007
  S33                         11.247         0.005         0.006
  S34                        822.518         0.595         0.626
  S35                          3.011         0.002         0.004
  S36                          7.274         0.004         0.016
  S37                          4.427         0.003         0.007
  S39                        117.207         0.047         0.144
  S40                         13.624         0.010         0.038
  S41                        126.388         0.033         0.053
  S42                         91.577         0.028         0.058
  S43                         11.663         0.008         0.032
  S44                        194.224         0.063         0.153
  S45                          0.382         0.000         0.000
  S47                         34.177         0.015         0.031
  S48                          2.434         0.001         0.002
  S49                        151.603         0.057         0.144
  S51                          5.464         0.004         0.018
  S52                         56.961         0.019         0.040
  S53                        123.891         0.030         0.051
  S54                         70.496         0.038         0.110
  S55                        130.759         0.055         0.154
  S56                          0.121         0.000         0.000
  S57                          5.739         0.003         0.012
  S58                         36.177         0.012         0.022
  S59                         22.184         0.006         0.010
  S60                         14.229         0.012         0.046
  S61                          5.726         0.002         0.007
  S62                         12.552         0.010         0.043
  S63                         10.934         0.003         0.012
  S64                          7.679         0.006         0.027
  S65                        148.535         0.053         0.127
  --------------------------------------------------------------
  System                    5996.095         2.431         3.479
  
  
  ******************
  Node Depth Summary
  ******************
  
  ---------------------------------------------------------------------------------
                                 Average  Maximum  Maximum  Time of Max    Reported
                                   Depth    Depth      HGL   Occurrence   Max Depth
  Node                 Type       Meters   Meters   Meters  days hr:min      Meters
  ---------------------------------------------------------------------------------
  FID1936              JUNCTION     0.15     0.34  1376.64     0  04:05        0.10
  FID1955              JUNCTION     0.16     0.30  1376.22     0  04:15        0.09
  FID1960              JUNCTION     0.15     0.25  1376.11     0  04:15        0.08
  FID1965              JUNCTION     0.14     0.24  1376.54     0  04:15        0.07
  FID1968              JUNCTION     0.13     0.20  1376.60     0  04:15        0.06
  FID2239              JUNCTION     0.15     0.27  1374.78     0  04:05        0.08
  FID2241              JUNCTION     0.13     0.19  1373.32     0  04:05        0.06
  FID2242              JUNCTION     0.13     0.21  1374.25     0  04:05        0.06
  FID2244              JUNCTION     0.13     0.18  1374.54     0  04:05        0.06
  FID2440              JUNCTION     0.34     0.51  1374.76     0  04:11        0.16
  FID2442              JUNCTION     0.00     0.00  1375.27     0  00:00        0.00
  FID2446              JUNCTION     0.16     0.42  1376.22     0  04:05        0.13
  FID2447              JUNCTION     0.15     0.38  1376.08     0  04:05        0.11
  FID2455              JUNCTION     0.24     0.44  1374.43     0  04:20        0.14
  FID2711              JUNCTION     0.13     0.22  1370.40     0  04:05        0.07
  FID2719              JUNCTION     0.16     0.38  1370.48     0  04:05        0.12
  FID2720              JUNCTION     0.16     0.34  1370.54     0  04:05        0.10
  FID2824              JUNCTION     0.12     0.18  1371.46     0  04:10        0.05
  FID2827              JUNCTION     0.13     0.22  1371.52     0  04:10        0.07
  FID2828              JUNCTION     0.14     0.22  1371.54     0  04:10        0.07
  FID2832              JUNCTION     0.16     0.28  1370.88     0  04:10        0.09
  FID2833              JUNCTION     0.21     0.43  1371.05     0  04:10        0.13
  FID2839              JUNCTION     0.17     0.31  1371.51     0  04:10        0.09
  FID2873              JUNCTION     0.15     0.26  1370.96     0  04:10        0.08
  FID2964              JUNCTION     0.13     0.18  1370.96     0  04:10        0.06
  FID2965              JUNCTION     0.35     0.69  1370.95     0  04:39        0.21
  FID4584              JUNCTION     0.12     0.25  1371.59     0  04:10        0.07
  FID5068              JUNCTION     0.13     0.19  1375.57     0  04:05        0.06
  FID5072              JUNCTION     0.41     0.67  1373.96     0  04:22        0.20
  FID5140              JUNCTION     0.16     0.28  1373.50     0  04:20        0.09
  FID5435              JUNCTION     0.15     0.24  1372.99     0  04:20        0.07
  FID5437              JUNCTION     0.12     0.17  1373.12     0  04:05        0.05
  FID5503              JUNCTION     0.11     0.16  1371.49     0  03:55        0.05
  FID5504              JUNCTION     0.15     0.23  1371.59     0  04:10        0.07
  FID5527              JUNCTION     0.14     0.20  1372.70     0  04:10        0.06
  FID5568              JUNCTION     0.40     0.67  1373.06     0  04:30        0.20
  FID5784              JUNCTION     0.41     0.68  1372.68     0  04:31        0.21
  FID5785              JUNCTION     0.13     0.23  1374.66     0  04:05        0.07
  AFID6926             JUNCTION     0.15     0.24  1370.04     0  04:15        0.07
  AFID7360             JUNCTION     0.40     0.77  1370.90     0  04:39        0.23
  AFID7363             JUNCTION     0.38     0.75  1370.92     0  04:39        0.23
  AFID7376             JUNCTION     0.18     0.36  1371.59     0  04:10        0.11
  AFID7377             JUNCTION     0.34     0.59  1371.27     0  04:36        0.18
  AFID7705             JUNCTION     0.44     0.52  1375.49     0  04:15        0.16
  AFID7706             JUNCTION     0.50     0.58  1375.49     0  04:15        0.18
  AFID7792             JUNCTION     0.17     0.34  1375.14     0  04:05        0.10
  AFID8223             JUNCTION     0.41     0.68  1372.69     0  04:31        0.21
  J1                   JUNCTION     0.66     0.67  1375.67     0  04:16        0.21
  FID4901              JUNCTION     0.39     0.45  1375.53     0  04:16        0.14
  J9                   JUNCTION     0.55     0.56  1375.66     0  04:16        0.17
  J11                  JUNCTION     0.39     0.42  1375.62     0  04:17        0.13
  J12                  JUNCTION     0.39     0.44  1375.55     0  04:16        0.13
  J13                  JUNCTION     0.39     0.45  1375.53     0  04:16        0.14
  FID4902              JUNCTION     0.41     0.47  1375.52     0  04:16        0.14
  J14                  JUNCTION     0.32     0.44  1375.35     0  04:05        0.13
  J15                  JUNCTION     0.30     0.44  1375.11     0  04:07        0.13
  J16                  JUNCTION     0.31     0.45  1375.09     0  04:07        0.14
  FID2449              JUNCTION     0.34     0.51  1374.83     0  04:11        0.16
  J17                  JUNCTION     0.22     0.44  1374.41     0  04:20        0.13
  J19                  JUNCTION     0.35     0.61  1374.15     0  04:22        0.18
  FID5069              JUNCTION     0.43     0.70  1373.96     0  04:22        0.21
  FID5139              JUNCTION     0.41     0.68  1373.03     0  04:30        0.21
  J24                  JUNCTION     0.41     0.68  1373.05     0  04:30        0.21
  FID4984              JUNCTION     0.43     0.71  1372.67     0  04:31        0.22
  FID2669              JUNCTION     0.30     0.57  1369.01     0  04:41        0.17
  FID2712              JUNCTION     0.32     0.60  1369.80     0  04:39        0.18
  FID2718              JUNCTION     0.32     0.61  1369.85     0  04:39        0.19
  FID2838              JUNCTION     0.48     0.87  1370.81     0  04:38        0.26
  FID2825              JUNCTION     0.53     0.93  1370.84     0  04:39        0.28
  FID2823              JUNCTION     0.58     0.98  1370.86     0  04:39        0.30
  FID5505              JUNCTION     0.47     0.85  1370.88     0  04:39        0.26
  FID5436              JUNCTION     0.44     0.71  1372.03     0  04:33        0.22
  FID5438              JUNCTION     0.36     0.63  1372.06     0  04:33        0.19
  J49                  JUNCTION     0.43     0.49  1375.51     0  04:16        0.15
  J50                  JUNCTION     0.46     0.54  1375.50     0  04:16        0.16
  J51                  JUNCTION     0.52     0.60  1375.49     0  04:15        0.18
  J52                  JUNCTION     0.53     0.61  1375.49     0  04:15        0.19
  J53                  JUNCTION     0.32     0.43  1375.35     0  04:06        0.13
  J54                  JUNCTION     0.33     0.42  1375.37     0  04:06        0.13
  J55                  JUNCTION     0.37     0.45  1375.48     0  04:15        0.14
  J56                  JUNCTION     0.35     0.43  1375.46     0  04:15        0.13
  J57                  JUNCTION     0.33     0.41  1375.43     0  04:10        0.12
  J58                  JUNCTION     0.33     0.42  1375.39     0  04:07        0.13
  FID1935              JUNCTION     0.33     0.45  1375.34     0  04:05        0.14
  J59                  JUNCTION     0.33     0.44  1375.31     0  04:06        0.14
  J60                  JUNCTION     0.33     0.44  1375.26     0  04:07        0.13
  J61                  JUNCTION     0.31     0.42  1375.19     0  04:08        0.13
  J62                  JUNCTION     0.30     0.42  1375.17     0  04:08        0.13
  J63                  JUNCTION     0.31     0.44  1375.13     0  04:07        0.14
  J64                  JUNCTION     0.30     0.44  1375.05     0  04:08        0.13
  J65                  JUNCTION     0.26     0.41  1374.99     0  04:09        0.12
  J66                  JUNCTION     0.33     0.51  1374.72     0  04:12        0.16
  J67                  JUNCTION     0.33     0.50  1374.65     0  04:12        0.15
  J68                  JUNCTION     0.32     0.49  1374.55     0  04:13        0.15
  J69                  JUNCTION     0.43     0.67  1374.39     0  04:20        0.20
  J70                  JUNCTION     0.42     0.65  1374.30     0  04:21        0.20
  J71                  JUNCTION     0.40     0.63  1374.23     0  04:21        0.19
  J72                  JUNCTION     0.42     0.68  1374.02     0  04:23        0.21
  J73                  JUNCTION     0.43     0.70  1373.92     0  04:22        0.21
  J74                  JUNCTION     0.44     0.70  1373.68     0  04:25        0.21
  J75                  JUNCTION     0.44     0.70  1373.55     0  04:26        0.21
  J76                  JUNCTION     0.41     0.68  1373.02     0  04:30        0.21
  J77                  JUNCTION     0.41     0.69  1372.89     0  04:30        0.21
  J78                  JUNCTION     0.41     0.68  1372.76     0  04:31        0.21
  J79                  JUNCTION     0.41     0.68  1372.69     0  04:31        0.21
  J80                  JUNCTION     0.34     0.60  1372.09     0  04:33        0.18
  J81                  JUNCTION     0.43     0.69  1371.68     0  04:35        0.21
  J82                  JUNCTION     0.43     0.68  1371.61     0  04:36        0.21
  J83                  JUNCTION     0.34     0.62  1371.42     0  04:36        0.19
  J84                  JUNCTION     0.31     0.56  1371.19     0  04:36        0.17
  J85                  JUNCTION     0.31     0.57  1371.10     0  04:38        0.17
  J86                  JUNCTION     0.33     0.62  1371.00     0  04:39        0.19
  J87                  JUNCTION     0.37     0.73  1370.92     0  04:39        0.22
  J88                  JUNCTION     0.45     0.83  1370.88     0  04:39        0.25
  J89                  JUNCTION     0.49     0.88  1370.87     0  04:39        0.27
  J90                  JUNCTION     0.45     0.84  1370.79     0  04:39        0.26
  J91                  JUNCTION     0.45     0.84  1370.73     0  04:39        0.26
  J92                  JUNCTION     0.45     0.84  1370.68     0  04:39        0.26
  J93                  JUNCTION     0.45     0.84  1370.56     0  04:40        0.26
  J94                  JUNCTION     0.45     0.84  1370.49     0  04:40        0.26
  J95                  JUNCTION     0.45     0.84  1370.47     0  04:40        0.25
  J96                  JUNCTION     0.45     0.83  1370.38     0  04:40        0.25
  J97                  JUNCTION     0.44     0.81  1370.31     0  04:41        0.25
  J98                  JUNCTION     0.43     0.80  1370.25     0  04:41        0.24
  J99                  JUNCTION     0.43     0.78  1370.18     0  04:41        0.24
  J100                 JUNCTION     0.41     0.76  1370.12     0  04:41        0.23
  J101                 JUNCTION     0.40     0.72  1370.05     0  04:41        0.22
  J102                 JUNCTION     0.32     0.61  1369.88     0  04:40        0.19
  J103                 JUNCTION     0.32     0.61  1369.83     0  04:39        0.19
  J104                 JUNCTION     0.32     0.60  1369.76     0  04:40        0.18
  J105                 JUNCTION     0.31     0.59  1369.71     0  04:40        0.18
  J106                 JUNCTION     0.30     0.57  1369.64     0  04:40        0.17
  J107                 JUNCTION     0.30     0.57  1369.50     0  04:40        0.17
  J108                 JUNCTION     0.30     0.57  1369.37     0  04:41        0.17
  J109                 JUNCTION     0.30     0.57  1369.25     0  04:41        0.17
  J110                 JUNCTION     0.30     0.57  1369.15     0  04:41        0.17
  J111                 JUNCTION     0.30     0.57  1369.05     0  04:41        0.17
  J112                 JUNCTION     0.30     0.57  1368.90     0  04:41        0.17
  J113                 JUNCTION     0.30     0.57  1368.80     0  04:42        0.17
  J114                 JUNCTION     0.30     0.57  1368.69     0  04:42        0.17
  J115                 JUNCTION     0.30     0.57  1368.63     0  04:42        0.17
  J116                 JUNCTION     0.30     0.57  1368.56     0  04:42        0.17
  J117                 JUNCTION     0.30     0.57  1368.45     0  04:43        0.17
  J118                 JUNCTION     0.30     0.57  1368.35     0  04:43        0.17
  J119                 JUNCTION     0.31     0.57  1368.28     0  04:43        0.17
  J120                 JUNCTION     0.33     0.57  1368.17     0  04:43        0.17
  FID2451              JUNCTION     0.33     0.50  1374.79     0  04:11        0.15
  J121                 JUNCTION     0.32     0.59  1371.34     0  04:36        0.18
  J122                 JUNCTION     0.33     0.59  1371.31     0  04:36        0.18
  FID3706              JUNCTION     0.45     0.84  1370.58     0  04:40        0.26
  FID2831              JUNCTION     0.45     0.84  1370.46     0  04:40        0.25
  FID2689              OUTFALL      0.25     0.46  1367.96     0  04:43        0.14
  
  
  *******************
  Node Inflow Summary
  *******************
  
  -------------------------------------------------------------------------------------------------
                                  Maximum  Maximum                  Lateral       Total        Flow
                                  Lateral    Total  Time of Max      Inflow      Inflow     Balance
                                   Inflow   Inflow   Occurrence      Volume      Volume       Error
  Node                 Type           CMS      CMS  days hr:min    10^6 ltr    10^6 ltr     Percent
  -------------------------------------------------------------------------------------------------
  FID1936              JUNCTION     0.138    0.138     0  04:05       0.187       0.187       0.091
  FID1955              JUNCTION     0.130    0.130     0  04:15       0.449       0.449       0.039
  FID1960              JUNCTION     0.060    0.060     0  04:15       0.205       0.205       0.084
  FID1965              JUNCTION     0.030    0.030     0  04:15       0.103       0.103       0.170
  FID1968              JUNCTION     0.009    0.009     0  04:15      0.0311      0.0311       0.564
  FID2239              JUNCTION     0.010    0.010     0  04:05      0.0325      0.0325       1.209
  FID2241              JUNCTION     0.000    0.009     0  04:05           0      0.0304       0.572
  FID2242              JUNCTION     0.009    0.009     0  04:05      0.0306      0.0306       0.593
  FID2244              JUNCTION     0.004    0.004     0  04:05      0.0119      0.0119       1.488
  FID2440              JUNCTION     0.000    1.105     0  04:10           0        14.9       0.205
  FID2442              JUNCTION     0.000    0.000     0  00:00           0           0       0.000 ltr
  FID2446              JUNCTION     0.103    0.103     0  04:05       0.132       0.132       0.186
  FID2447              JUNCTION     0.000    0.103     0  04:05           0       0.132       0.093
  FID2455              JUNCTION     0.073    1.148     0  04:13       0.236          15       0.184
  FID2711              JUNCTION     0.000    0.028     0  04:05           0      0.0392       0.456
  FID2719              JUNCTION     0.109    0.109     0  04:05       0.183       0.183       0.099
  FID2720              JUNCTION     0.029    0.029     0  04:05      0.0394      0.0394       0.542
  FID2824              JUNCTION     0.000    0.003     0  04:10    0.000541     0.00801       2.148
  FID2827              JUNCTION     0.000    0.003     0  04:10    0.000612     0.00763       2.091
  FID2828              JUNCTION     0.002    0.002     0  04:10     0.00722     0.00722       2.934
  FID2832              JUNCTION     0.000    0.141     0  04:10           0       0.467       0.059
  FID2833              JUNCTION     0.142    0.142     0  04:10       0.468       0.468       0.061
  FID2839              JUNCTION     0.307    0.307     0  04:10        1.15        1.15       0.029
  FID2873              JUNCTION     0.019    0.019     0  04:10      0.0614      0.0614       0.758
  FID2964              JUNCTION     0.004    0.004     0  04:10      0.0161      0.0161       1.040
  FID2965              JUNCTION     0.000    1.523     0  04:38           0        15.5       0.251
  FID4584              JUNCTION     0.000    0.001     0  03:41           0    0.000512      39.879
  FID5068              JUNCTION     0.005    0.005     0  04:05      0.0146      0.0146       1.207
  FID5072              JUNCTION     0.076    1.260     0  04:20       0.239        15.1       0.178
  FID5140              JUNCTION     0.116    0.116     0  04:20        0.43        0.43       0.035
  FID5435              JUNCTION     0.140    0.140     0  04:20       0.412       0.412       0.045
  FID5437              JUNCTION     0.001    0.001     0  04:05     0.00398     0.00398       4.575
  FID5503              JUNCTION     0.000    0.000     0  03:55    0.000579    0.000579      42.578
  FID5504              JUNCTION     0.056    0.056     0  04:10       0.186       0.186       0.122
  FID5527              JUNCTION     0.012    0.012     0  04:10      0.0385      0.0385       0.457
  FID5568              JUNCTION     0.002    1.252     0  04:27      0.0057        14.8       0.632
  FID5784              JUNCTION     0.000    1.379     0  04:30           0        15.3       0.092
  FID5785              JUNCTION     0.000    0.010     0  04:05           0      0.0321       0.488
  AFID6926             JUNCTION     0.057    0.057     0  04:15       0.191       0.191       0.093
  AFID7360             JUNCTION     0.000    1.522     0  04:39    0.000349        15.4       0.185
  AFID7363             JUNCTION     0.000    1.522     0  04:39           0        15.5       0.092
  AFID7376             JUNCTION     0.149    0.149     0  04:10       0.507       0.508       0.022
  AFID7377             JUNCTION     0.000    1.529     0  04:34           0        15.6       0.102
  AFID7705             JUNCTION     0.000    0.663     0  04:15           0          14       0.248
  AFID7706             JUNCTION     0.000    0.606     0  04:17           0        13.8       0.242
  AFID7792             JUNCTION     0.154    0.154     0  04:05       0.514       0.514       0.034
  AFID8223             JUNCTION     0.000    1.375     0  04:30           0        15.2       0.020
  J1                   JUNCTION     0.664    0.664     0  04:15          21          21       0.138
  FID4901              JUNCTION     0.000    0.474     0  04:18           0        13.8       0.210
  J9                   JUNCTION     0.000    0.664     0  04:15           0          21       0.275
  J11                  JUNCTION     0.000    0.663     0  04:15           0        20.9       0.460
  J12                  JUNCTION     0.006    0.667     0  04:20       0.019        20.8       0.504
  J13                  JUNCTION    -0.220    0.671     0  04:20       -7.13        20.7      -0.182
  FID4902              JUNCTION     0.000    0.482     0  04:15           0        13.8       0.330
  J14                  JUNCTION     0.235    0.780     0  04:05         0.4        14.1       0.174
  J15                  JUNCTION     0.298    1.022     0  04:06       0.557        14.6       0.144
  J16                  JUNCTION     0.007    1.019     0  04:06     0.00774        14.6       0.145
  FID2449              JUNCTION     0.001    0.985     0  04:09     0.00111        14.5       1.142
  J17                  JUNCTION     0.110    1.222     0  04:20        0.35        15.3       0.082
  J19                  JUNCTION     0.010    1.219     0  04:20      0.0305        15.1       1.080
  FID5069              JUNCTION     0.000    1.261     0  04:20           0        15.1       0.161
  FID5139              JUNCTION     0.000    1.340     0  04:30           0        15.2       0.047
  J24                  JUNCTION     0.011    1.254     0  04:31      0.0347        14.7       0.072
  FID4984              JUNCTION     0.000    1.384     0  04:30           0        15.3       0.749
  FID2669              JUNCTION     0.000    1.735     0  04:41           0          17       0.061
  FID2712              JUNCTION     0.000    1.706     0  04:39           0        16.9       0.077
  FID2718              JUNCTION     0.000    1.701     0  04:39           0        16.9       0.056
  FID2838              JUNCTION     0.000    1.641     0  04:37           0        16.5       0.167
  FID2825              JUNCTION     0.000    1.540     0  04:41           0        15.4       0.302
  FID2823              JUNCTION     0.000    1.538     0  04:40           0        15.5       0.462
  FID5505              JUNCTION     0.000    1.537     0  04:39           0        15.6       0.121
  FID5436              JUNCTION     0.000    1.476     0  04:30           0        15.5       0.736
  FID5438              JUNCTION     0.000    1.384     0  04:33           0        15.1       0.135
  J49                  JUNCTION     0.000    0.482     0  04:19           0        13.7       0.524
  J50                  JUNCTION     0.000    0.486     0  04:19     0.00023        13.6       0.930
  J51                  JUNCTION     0.000    0.492     0  04:33           0        13.5       0.761
  J52                  JUNCTION     0.000    0.501     0  04:34           0        13.4       0.227
  J53                  JUNCTION     0.000    0.671     0  04:15           0        13.8       0.185
  J54                  JUNCTION     0.000    0.668     0  04:15           0        13.8       0.273
  J55                  JUNCTION     0.000    0.663     0  04:15           0          14       0.267
  J56                  JUNCTION     0.000    0.663     0  04:15           0        13.9       0.284
  J57                  JUNCTION     0.000    0.663     0  04:15           0        13.9       0.351
  J58                  JUNCTION     0.002    0.666     0  04:16     0.00559        13.8       0.375
  FID1935              JUNCTION     0.000    0.905     0  04:05           0        14.3       0.224
  J59                  JUNCTION     0.000    0.891     0  04:05           0        14.3       0.305
  J60                  JUNCTION     0.007    0.872     0  04:05     0.00778        14.2       0.479
  J61                  JUNCTION     0.000    0.838     0  04:06           0        14.2       0.321
  J62                  JUNCTION     0.000    0.830     0  04:07           0        14.1       0.142
  J63                  JUNCTION     0.000    0.831     0  04:08           0        14.1       0.146
  J64                  JUNCTION     0.000    1.014     0  04:07           0        14.6       0.149
  J65                  JUNCTION     0.019    1.016     0  04:07      0.0249        14.6       0.853
  J66                  JUNCTION     0.000    1.103     0  04:11           0        14.9       0.260
  J67                  JUNCTION     0.000    1.100     0  04:11           0        14.9       0.390
  J68                  JUNCTION     0.006    1.100     0  04:12      0.0193        14.8       0.431
  J69                  JUNCTION     0.000    1.221     0  04:20           0        15.3       0.411
  J70                  JUNCTION     0.003    1.220     0  04:20     0.00971        15.3       0.525
  J71                  JUNCTION     0.000    1.216     0  04:21           0        15.2       0.378
  J72                  JUNCTION     0.008    1.214     0  04:22      0.0262          15       1.240
  J73                  JUNCTION     0.000    1.259     0  04:20           0          15       0.349
  J74                  JUNCTION     0.000    1.257     0  04:22           0          15       0.514
  J75                  JUNCTION     0.004    1.254     0  04:24      0.0101        14.9       0.799
  J76                  JUNCTION     0.000    1.340     0  04:30           0        15.2       0.195
  J77                  JUNCTION     0.066    1.376     0  04:30       0.222        15.3       0.361
  J78                  JUNCTION     0.000    1.374     0  04:30           0        15.3       0.271
  J79                  JUNCTION     0.000    1.374     0  04:30           0        15.2       0.100
  J80                  JUNCTION     0.009    1.385     0  04:31      0.0257        15.2       0.595
  J81                  JUNCTION     0.002    1.476     0  04:32     0.00448        15.4       1.152
  J82                  JUNCTION     0.000    1.469     0  04:35           0        15.3       0.457
  J83                  JUNCTION     0.000    1.468     0  04:36           0        15.2       0.325
  J84                  JUNCTION     0.000    1.529     0  04:35           0        15.6       0.175
  J85                  JUNCTION     0.000    1.528     0  04:35           0        15.6       0.327
  J86                  JUNCTION     0.000    1.525     0  04:36           0        15.5       0.334
  J87                  JUNCTION     0.002    1.522     0  04:38     0.00691        15.5       0.140
  J88                  JUNCTION     0.000    1.522     0  04:40           0        15.4       0.218
  J89                  JUNCTION     0.000    1.537     0  04:40           0        15.5       0.333
  J90                  JUNCTION     0.000    1.641     0  04:37           0        16.5       0.112
  J91                  JUNCTION     0.000    1.640     0  04:38           0        16.5       0.158
  J92                  JUNCTION     0.000    1.639     0  04:38    2.81e-06        16.5       0.196
  J93                  JUNCTION     0.000    1.644     0  04:39           0        16.5       0.104
  J94                  JUNCTION     0.000    1.644     0  04:40    5.07e-06        16.4       0.120
  J95                  JUNCTION     0.000    1.644     0  04:40           0        16.4       0.046
  J96                  JUNCTION     0.000    1.683     0  04:39           0        16.9       0.170
  J97                  JUNCTION     0.000    1.682     0  04:39           0        16.8       0.145
  J98                  JUNCTION     0.000    1.681     0  04:40           0        16.8       0.128
  J99                  JUNCTION     0.000    1.681     0  04:40           0        16.8       0.110
  J100                 JUNCTION     0.000    1.681     0  04:41           0        16.8       0.093
  J101                 JUNCTION     0.000    1.681     0  04:41           0        16.8       0.108
  J102                 JUNCTION     0.000    1.681     0  04:41           0        16.7       0.082
  J103                 JUNCTION     0.000    1.701     0  04:40           0        16.9       0.062
  J104                 JUNCTION     0.000    1.706     0  04:39           0        16.9       0.082
  J105                 JUNCTION     0.000    1.706     0  04:39           0        16.9       0.102
  J106                 JUNCTION     0.000    1.706     0  04:40           0        16.9       0.114
  J107                 JUNCTION     0.000    1.706     0  04:40           0        16.9       0.115
  J108                 JUNCTION     0.000    1.706     0  04:40    1.76e-05        16.8       0.104
  J109                 JUNCTION     0.000    1.706     0  04:41           0        16.8       0.088
  J110                 JUNCTION     0.000    1.705     0  04:41           0        16.8       0.085
  J111                 JUNCTION     0.000    1.705     0  04:41    0.000157        16.8       0.063
  J112                 JUNCTION     0.000    1.735     0  04:41           0          17       0.088
  J113                 JUNCTION     0.000    1.735     0  04:41           0          17       0.086
  J114                 JUNCTION     0.000    1.735     0  04:42           0        16.9       0.073
  J115                 JUNCTION     0.000    1.735     0  04:42           0        16.9       0.054
  J116                 JUNCTION     0.000    1.735     0  04:42     4.9e-06        16.9       0.071
  J117                 JUNCTION     0.000    1.735     0  04:42           0        16.9       0.087
  J118                 JUNCTION     0.000    1.735     0  04:42           0        16.9       0.075
  J119                 JUNCTION     0.000    1.735     0  04:43           0        16.9       0.071
  J120                 JUNCTION     0.000    1.735     0  04:43           0        16.9       0.088
  FID2451              JUNCTION     0.000    0.984     0  04:10           0        14.4       0.204
  J121                 JUNCTION     0.005    1.468     0  04:37      0.0136        15.2       0.100
  J122                 JUNCTION     0.000    1.469     0  04:37    0.000615        15.1       0.090
  FID3706              JUNCTION     0.000    1.644     0  04:39           0        16.5       0.158
  FID2831              JUNCTION     0.000    1.683     0  04:38           0        16.9       0.100
  FID2689              OUTFALL      0.000    1.735     0  04:43           0        16.8       0.000
  
  
  **********************
  Node Surcharge Summary
  **********************
  
  No nodes were surcharged.
  
  
  *********************
  Node Flooding Summary
  *********************
  
  No nodes were flooded.
  
  
  ***********************
  Outfall Loading Summary
  ***********************
  
  -----------------------------------------------------------------------------------------------------
                         Flow       Avg       Max       Total         Total         Total         Total
                         Freq      Flow      Flow      Volume           TSS            TP           TDP
  Outfall Node           Pcnt       CMS       CMS    10^6 ltr            kg            kg            kg
  -----------------------------------------------------------------------------------------------------
  FID2689               79.83     0.831     1.735      16.849      5783.984         2.812         3.849
  -----------------------------------------------------------------------------------------------------
  System                79.83     0.831     1.735      16.849      5783.984         2.812         3.849
  
  
  ********************
  Link Flow Summary
  ********************
  
  -----------------------------------------------------------------------------
                                 Maximum  Time of Max   Maximum    Max/    Max/
                                  |Flow|   Occurrence   |Veloc|    Full    Full
  Link                 Type          CMS  days hr:min     m/sec    Flow   Depth
  -----------------------------------------------------------------------------
  FID1123              CONDUIT     0.019     0  04:10      0.82    0.27    0.42
  FID1139              CONDUIT     0.108     0  04:05      1.49    0.68    0.60
  FID1148              CONDUIT     0.141     0  04:10      1.01    0.31    0.27
  FID1149              CONDUIT     0.141     0  04:10      2.29    0.04    0.25
  FID3364              CONDUIT     0.148     0  04:10      1.00    0.11    0.33
  FID3671              CONDUIT     0.009     0  04:15      1.17    0.06    0.16
  FID3672              CONDUIT     0.030     0  04:15      1.65    0.19    0.30
  FID3762              CONDUIT     0.060     0  04:15      1.94    0.16    0.36
  FID3765              CONDUIT     0.130     0  04:15      2.77    0.32    0.44
  FID4112              CONDUIT     0.138     0  04:05      1.77    0.21    0.31
  FID4186              CONDUIT     0.009     0  04:05      0.99    0.04    0.14
  FID4187              CONDUIT     0.009     0  04:05      1.56    0.02    0.10
  FID4201              CONDUIT     0.103     0  04:05      1.28    0.92    0.66
  FID4202              CONDUIT     0.102     0  04:05      1.46    0.65    0.59
  FID4203              CONDUIT     0.000     0  00:00      0.00    0.00    0.25
  FID4299              CONDUIT     0.005     0  04:05      0.94    0.02    0.09
  FID4372              CONDUIT     0.116     0  04:20      0.69    0.03    0.30
  FID4498              CONDUIT     0.004     0  04:10      0.11    0.01    0.53
  FID4806              CONDUIT     0.140     0  04:20      4.06    0.02    0.10
  FID4807              CONDUIT     0.001     0  04:05      0.72    0.01    0.06
  FID4882              CONDUIT     0.000     0  03:55      0.05    0.00    0.52
  FID4884              CONDUIT     0.056     0  04:10      1.95    0.02    0.09
  FID4914              CONDUIT     0.012     0  04:10      0.20    0.04    0.57
  FID4915              CONDUIT     0.002     0  04:10      0.18    0.06    0.18
  FID4916              CONDUIT     0.003     0  04:10      0.28    0.06    0.14
  FID4917              CONDUIT     0.003     0  04:10      0.88    0.01    0.45
  FID5307              CONDUIT     0.010     0  04:05      0.48    0.16    0.25
  FID5308              CONDUIT     0.004     0  04:05      1.14    0.02    0.09
  FID5312              CONDUIT     0.010     0  04:05      0.63    0.05    0.15
  FID5865              CONDUIT     0.307     0  04:10      4.47    0.09    0.24
  C9                   CHANNEL     0.664     0  04:15      0.71    0.06    0.44
  C12                  CHANNEL     0.664     0  04:21      0.52    0.24    0.50
  C13                  CHANNEL     0.671     0  04:20      0.80    0.24    0.52
  C14                  CHANNEL     0.455     0  04:34      0.99    0.16    0.53
  C52                  CONDUIT     0.153     0  04:05      1.27    0.21    0.44
  C130                 CONDUIT     0.028     0  04:05      0.60    0.45    0.32
  C131                 CONDUIT     0.028     0  04:05      1.66    0.05    0.27
  C139                 CONDUIT     0.001     0  03:41      0.07    0.01    0.39
  C191                 CHANNEL     0.482     0  04:19      0.52    0.17    0.56
  C193                 CHANNEL     0.492     0  04:33      0.42    0.18    0.66
  C194                 CHANNEL     0.501     0  04:34      0.33    0.18    0.71
  C195                 CHANNEL     0.504     0  04:33      0.39    0.08    0.56
  C196                 CONDUIT     0.475     0  04:19      0.45    0.28    0.59
  C197                 CONDUIT     0.607     0  04:17      0.27    0.23    0.78
  C198                 CHANNEL     0.663     0  04:15      0.32    0.11    0.46
  C199                 CHANNEL     0.663     0  04:15      0.35    2.37    0.53
  C200                 CHANNEL     0.663     0  04:15      0.38    2.15    0.50
  C201                 CHANNEL     0.665     0  04:16      0.38    0.16    0.41
  C202                 CHANNEL     0.668     0  04:15      0.38    0.16    0.42
  C203                 CHANNEL     0.671     0  04:15      0.38    0.16    0.43
  C204                 CHANNEL     0.674     0  04:15      0.91    0.16    0.43
  C205                 CONDUIT     0.770     0  04:06      0.36    0.44    0.54
  C206                 CHANNEL     0.891     0  04:05      0.46    0.22    0.44
  C207                 CHANNEL     0.868     0  04:05      0.46    0.21    0.44
  C208                 CHANNEL     0.838     0  04:06      0.46    0.20    0.43
  C209                 CHANNEL     0.830     0  04:07      0.46    0.20    0.42
  C210                 CHANNEL     0.831     0  04:08      0.55    0.21    0.49
  C211                 CHANNEL     0.834     0  04:08      0.52    0.25    0.45
  C212                 CONDUIT     1.017     0  04:06      0.47    0.48    0.54
  C213                 CHANNEL     1.014     0  04:07      0.63    0.30    0.45
  C214                 CHANNEL     1.009     0  04:07      1.17    0.30    0.43
  C215                 CONDUIT     0.985     0  04:09      0.44    0.47    0.56
  C216                 CONDUIT     0.970     0  04:11      0.54    0.59    0.48
  C217                 CONDUIT     0.982     0  04:11      0.46    0.32    0.37
  C218                 CHANNEL     1.103     0  04:11      0.58    0.33    0.52
  C219                 CHANNEL     1.100     0  04:11      0.58    0.33    0.52
  C220                 CHANNEL     1.096     0  04:12      0.60    0.33    0.50
  C221                 CHANNEL     1.097     0  04:13      0.64    0.33    0.47
  C222                 CONDUIT     1.146     0  04:13      0.61    0.63    0.54
  C223                 CHANNEL     1.221     0  04:20      0.86    0.13    0.49
  C224                 CHANNEL     1.218     0  04:20      0.56    0.65    0.77
  C225                 CHANNEL     1.216     0  04:21      0.58    0.65    0.75
  C226                 CHANNEL     1.213     0  04:21      0.61    0.65    0.72
  C227                 CONDUIT     1.210     0  04:23      0.44    0.80    0.78
  C228                 CHANNEL     1.215     0  04:24      0.75    0.41    0.62
  C229                 CONDUIT     1.257     0  04:20      0.36    0.18    0.46
  C230                 CHANNEL     1.259     0  04:20      0.74    0.42    0.65
  C231                 CHANNEL     1.257     0  04:22      0.73    0.42    0.65
  C232                 CHANNEL     1.254     0  04:24      0.73    0.42    0.65
  C233                 CHANNEL     1.252     0  04:27      0.75    0.42    0.63
  C234                 CONDUIT     1.250     0  04:31      0.54    0.42    0.49
  C235                 CHANNEL     1.254     0  04:31      0.76    0.42    0.63
  C236                 CHANNEL     1.340     0  04:30      0.76    0.53    0.70
  C237                 CHANNEL     1.339     0  04:30      0.75    0.53    0.71
  C238                 CHANNEL     1.374     0  04:30      0.77    0.54    0.71
  C239                 CHANNEL     1.374     0  04:30      0.77    0.54    0.71
  C240                 CHANNEL     1.373     0  04:30      0.77    0.53    0.71
  C241                 CHANNEL     1.375     0  04:30      0.88    0.54    0.71
  C242                 CONDUIT     1.379     0  04:30      0.56    0.40    0.57
  C243                 CHANNEL     1.382     0  04:32      0.81    0.54    0.68
  C244                 CHANNEL     1.383     0  04:33      0.99    0.19    0.40
  C245                 CONDUIT     1.384     0  04:33      0.65    0.31    0.52
  C246                 CHANNEL     1.471     0  04:33      0.65    0.39    0.61
  C247                 CHANNEL     1.469     0  04:35      0.66    0.39    0.59
  C248                 CHANNEL     1.468     0  04:36      0.71    0.39    0.56
  C249                 CHANNEL     1.468     0  04:37      0.88    0.49    0.57
  C250                 CONDUIT     1.469     0  04:37      0.78    0.44    0.46
  C251                 CONDUIT     1.469     0  04:37      0.78    0.44    0.46
  C252                 CHANNEL     1.529     0  04:35      1.29    0.51    0.54
  C253                 CHANNEL     1.528     0  04:35      1.02    0.29    0.53
  C254                 CHANNEL     1.525     0  04:36      1.17    0.28    0.57
  C255                 CHANNEL     1.522     0  04:38      1.54    0.28    0.62
  C256                 CHANNEL     1.522     0  04:38      2.61    0.28    0.67
  C257                 CHANNEL     1.522     0  04:39      1.18    0.28    0.70
  C258                 CONDUIT     1.522     0  04:39      0.63    0.46    0.59
  C259                 CHANNEL     1.522     0  04:40      1.44    0.28    0.76
  C260                 CHANNEL     1.522     0  04:40      1.31    0.28    0.80
  C261                 CHANNEL     1.537     0  04:40      2.32    0.29    0.82
  C262                 CHANNEL     1.538     0  04:40      2.98    0.29    0.88
  C263                 CHANNEL     1.540     0  04:41      0.58    0.29    0.61
  C264                 CONDUIT     1.541     0  04:41      0.56    0.66    0.66
  C265                 CHANNEL     1.641     0  04:37      0.65    0.31    0.54
  C266                 CHANNEL     1.640     0  04:38      0.70    0.26    0.59
  C267                 CHANNEL     1.639     0  04:38      0.70    0.26    0.59
  C268                 CHANNEL     1.639     0  04:39      0.70    0.26    0.59
  C269                 CHANNEL     1.644     0  04:39      0.91    0.26    0.59
  C270                 CHANNEL     1.644     0  04:40      0.71    0.26    0.59
  C271                 CHANNEL     1.644     0  04:40      0.71    0.26    0.58
  C272                 CHANNEL     1.644     0  04:40      1.05    0.26    0.58
  C273                 CHANNEL     1.683     0  04:39      0.74    0.27    0.58
  C274                 CHANNEL     1.682     0  04:39      0.76    0.27    0.57
  C275                 CHANNEL     1.681     0  04:40      0.78    0.27    0.56
  C276                 CHANNEL     1.681     0  04:40      0.81    0.27    0.55
  C277                 CHANNEL     1.681     0  04:41      0.84    0.27    0.54
  C278                 CHANNEL     1.681     0  04:41      0.90    0.27    0.52
  C279                 CHANNEL     1.681     0  04:41      1.06    0.27    0.47
  C280                 CHANNEL     1.681     0  04:42      0.82    0.47    0.62
  C281                 CHANNEL     1.701     0  04:40      0.83    0.48    0.62
  C282                 CHANNEL     1.701     0  04:40      0.84    0.48    0.62
  C283                 CHANNEL     1.706     0  04:39      0.85    0.48    0.61
  C284                 CHANNEL     1.706     0  04:39      0.86    0.48    0.60
  C285                 CHANNEL     1.706     0  04:40      0.88    0.48    0.59
  C286                 CHANNEL     1.706     0  04:40      1.05    0.34    0.58
  C287                 CHANNEL     1.706     0  04:40      1.04    0.34    0.58
  C288                 CHANNEL     1.706     0  04:41      1.04    0.34    0.58
  C289                 CHANNEL     1.705     0  04:41      1.04    0.34    0.58
  C290                 CHANNEL     1.705     0  04:41      1.04    0.34    0.58
  C291                 CHANNEL     1.705     0  04:41      1.03    0.34    0.58
  C292                 CHANNEL     1.735     0  04:41      1.05    0.35    0.58
  C293                 CHANNEL     1.735     0  04:41      1.05    0.35    0.58
  C294                 CHANNEL     1.735     0  04:42      1.05    0.35    0.58
  C295                 CHANNEL     1.735     0  04:42      1.05    0.35    0.58
  C296                 CHANNEL     1.735     0  04:42      1.05    0.35    0.58
  C297                 CHANNEL     1.735     0  04:42      1.05    0.35    0.58
  C298                 CHANNEL     1.735     0  04:42      1.05    0.35    0.58
  C299                 CHANNEL     1.735     0  04:43      1.05    0.35    0.58
  C300                 CHANNEL     1.735     0  04:43      1.05    0.35    0.58
  C301                 CHANNEL     1.735     0  04:43      1.49    0.25    0.40
  C302                 CHANNEL     0.663     0  04:15      0.62    0.08    0.38
  C303                 CHANNEL     0.486     0  04:19      0.47    0.17    0.60
  C353                 CONDUIT     0.057     0  04:15      1.90    0.02    0.09
  
  
  ***************************
  Flow Classification Summary
  ***************************
  
  -------------------------------------------------------------------------------------
                      Adjusted    ---------- Fraction of Time in Flow Class ---------- 
                       /Actual         Up    Down  Sub   Sup   Up    Down  Norm  Inlet 
  Conduit               Length    Dry  Dry   Dry   Crit  Crit  Crit  Crit  Ltd   Ctrl  
  -------------------------------------------------------------------------------------
  FID1123                 1.00   0.17  0.00  0.00  0.19  0.00  0.00  0.64  0.13  0.00
  FID1139                 1.00   0.18  0.00  0.00  0.00  0.00  0.00  0.82  0.00  0.00
  FID1148                 1.00   0.16  0.00  0.00  0.37  0.00  0.00  0.47  0.00  0.00
  FID1149                 1.00   0.16  0.00  0.00  0.28  0.07  0.00  0.48  0.26  0.00
  FID3364                 1.00   0.12  0.04  0.00  0.84  0.00  0.00  0.00  0.71  0.00
  FID3671                 1.00   0.19  0.00  0.00  0.00  0.00  0.00  0.81  0.00  0.00
  FID3672                 1.00   0.19  0.00  0.00  0.00  0.00  0.00  0.81  0.00  0.00
  FID3762                 1.00   0.01  0.17  0.00  0.63  0.18  0.00  0.00  0.68  0.00
  FID3765                 1.00   0.01  0.17  0.00  0.58  0.24  0.00  0.00  0.68  0.00
  FID4112                 1.00   0.18  0.00  0.00  0.00  0.00  0.00  0.82  0.00  0.00
  FID4186                 1.00   0.21  0.00  0.00  0.11  0.33  0.00  0.35  0.00  0.00
  FID4187                 1.00   0.24  0.00  0.00  0.00  0.00  0.00  0.76  0.00  0.00
  FID4201                 1.00   0.18  0.00  0.00  0.60  0.00  0.00  0.22  0.36  0.00
  FID4202                 1.00   0.18  0.00  0.00  0.00  0.00  0.00  0.82  0.00  0.00
  FID4203                 1.00   0.19  0.81  0.00  0.00  0.00  0.00  0.00  0.00  0.00
  FID4299                 1.00   0.22  0.00  0.00  0.00  0.00  0.00  0.78  0.00  0.00
  FID4372                 1.00   0.06  0.13  0.00  0.81  0.00  0.00  0.00  0.68  0.00
  FID4498                 1.00   0.13  0.06  0.00  0.81  0.00  0.00  0.00  0.67  0.00
  FID4806                 1.00   0.20  0.00  0.00  0.00  0.00  0.00  0.80  0.00  0.00
  FID4807                 1.00   0.24  0.00  0.00  0.00  0.00  0.00  0.76  0.00  0.00
  FID4882                 1.00   0.27  0.13  0.00  0.28  0.00  0.00  0.32  0.59  0.00
  FID4884                 1.00   0.16  0.00  0.00  0.05  0.05  0.00  0.74  0.07  0.00
  FID4914                 1.00   0.10  0.07  0.00  0.83  0.00  0.00  0.00  0.69  0.00
  FID4915                 1.00   0.20  0.00  0.00  0.75  0.00  0.00  0.04  0.50  0.00
  FID4916                 1.00   0.24  0.00  0.00  0.56  0.00  0.00  0.20  0.05  0.00
  FID4917                 1.00   0.25  0.00  0.00  0.32  0.01  0.00  0.42  0.24  0.00
  FID5307                 1.00   0.20  0.00  0.00  0.73  0.00  0.00  0.07  0.29  0.00
  FID5308                 1.00   0.22  0.00  0.00  0.00  0.00  0.00  0.78  0.00  0.00
  FID5312                 1.00   0.24  0.00  0.00  0.00  0.00  0.00  0.76  0.00  0.00
  FID5865                 1.00   0.16  0.00  0.00  0.07  0.13  0.00  0.64  0.14  0.00
  C9                      1.00   0.00  0.00  0.00  1.00  0.00  0.00  0.00  0.00  0.00
  C12                     1.00   0.00  0.00  0.00  1.00  0.00  0.00  0.00  0.00  0.00
  C13                     1.00   0.00  0.00  0.00  1.00  0.00  0.00  0.00  0.00  0.00
  C14                     1.00   0.00  0.00  0.00  1.00  0.00  0.00  0.00  0.00  0.00
  C52                     1.00   0.03  0.16  0.00  0.81  0.00  0.00  0.00  0.68  0.00
  C130                    1.00   0.18  0.00  0.00  0.52  0.00  0.00  0.30  0.00  0.00
  C131                    1.00   0.20  0.00  0.00  0.26  0.03  0.00  0.50  0.21  0.00
  C139                    1.00   0.16  0.50  0.00  0.33  0.00  0.01  0.00  0.48  0.00
  C191                    1.00   0.00  0.00  0.00  1.00  0.00  0.00  0.00  0.00  0.00
  C193                    1.00   0.00  0.00  0.00  1.00  0.00  0.00  0.00  0.00  0.00
  C194                    1.00   0.00  0.00  0.00  1.00  0.00  0.00  0.00  0.00  0.00
  C195                    1.00   0.01  0.00  0.00  0.99  0.00  0.00  0.00  0.00  0.00
  C196                    1.00   0.00  0.00  0.00  1.00  0.00  0.00  0.00  0.00  0.00
  C197                    1.00   0.01  0.00  0.00  0.99  0.00  0.00  0.00  0.00  0.00
  C198                    1.00   0.01  0.00  0.00  0.99  0.00  0.00  0.00  0.00  0.00
  C199                    1.00   0.01  0.00  0.00  0.99  0.00  0.00  0.00  0.00  0.00
  C200                    1.00   0.01  0.00  0.00  0.99  0.00  0.00  0.00  0.00  0.00
  C201                    1.00   0.01  0.00  0.00  0.99  0.00  0.00  0.00  0.00  0.00
  C202                    1.00   0.01  0.00  0.00  0.99  0.00  0.00  0.00  0.00  0.00
  C203                    1.00   0.01  0.00  0.00  0.99  0.00  0.00  0.00  0.00  0.00
  C204                    1.00   0.01  0.00  0.00  0.99  0.00  0.00  0.00  0.00  0.00
  C205                    1.00   0.01  0.00  0.00  0.99  0.00  0.00  0.00  0.00  0.00
  C206                    1.00   0.01  0.00  0.00  0.99  0.00  0.00  0.00  0.00  0.00
  C207                    1.00   0.02  0.00  0.00  0.98  0.00  0.00  0.00  0.00  0.00
  C208                    1.00   0.02  0.00  0.00  0.98  0.00  0.00  0.00  0.00  0.00
  C209                    1.00   0.02  0.00  0.00  0.98  0.00  0.00  0.00  0.00  0.00
  C210                    1.00   0.02  0.00  0.00  0.98  0.00  0.00  0.00  0.00  0.00
  C211                    1.00   0.02  0.00  0.00  0.98  0.00  0.00  0.00  0.00  0.00
  C212                    1.00   0.02  0.00  0.00  0.98  0.00  0.00  0.00  0.00  0.00
  C213                    1.00   0.02  0.00  0.00  0.98  0.00  0.00  0.00  0.00  0.00
  C214                    1.00   0.02  0.00  0.00  0.98  0.00  0.00  0.00  0.00  0.00
  C215                    1.00   0.02  0.00  0.00  0.98  0.00  0.00  0.00  0.78  0.00
  C216                    1.00   0.02  0.00  0.00  0.98  0.00  0.00  0.00  0.00  0.00
  C217                    1.00   0.02  0.00  0.00  0.98  0.00  0.00  0.00  0.00  0.00
  C218                    1.00   0.02  0.00  0.00  0.98  0.00  0.00  0.00  0.00  0.00
  C219                    1.00   0.03  0.00  0.00  0.97  0.00  0.00  0.00  0.00  0.00
  C220                    1.00   0.03  0.00  0.00  0.97  0.00  0.00  0.00  0.00  0.00
  C221                    1.00   0.03  0.00  0.00  0.97  0.00  0.00  0.00  0.00  0.00
  C222                    1.00   0.03  0.00  0.00  0.97  0.00  0.00  0.00  0.00  0.00
  C223                    1.00   0.04  0.00  0.00  0.96  0.00  0.00  0.00  0.03  0.00
  C224                    1.00   0.04  0.00  0.00  0.96  0.00  0.00  0.00  0.00  0.00
  C225                    1.00   0.04  0.00  0.00  0.96  0.00  0.00  0.00  0.00  0.00
  C226                    1.00   0.04  0.00  0.00  0.96  0.00  0.00  0.00  0.00  0.00
  C227                    1.00   0.04  0.00  0.00  0.96  0.00  0.00  0.00  0.01  0.00
  C228                    1.00   0.04  0.00  0.00  0.96  0.00  0.00  0.00  0.00  0.00
  C229                    1.00   0.05  0.00  0.00  0.95  0.00  0.00  0.00  0.00  0.00
  C230                    1.00   0.05  0.00  0.00  0.95  0.00  0.00  0.00  0.00  0.00
  C231                    1.00   0.05  0.00  0.00  0.95  0.00  0.00  0.00  0.53  0.00
  C232                    1.00   0.05  0.00  0.00  0.95  0.00  0.00  0.00  0.00  0.00
  C233                    1.00   0.05  0.00  0.00  0.95  0.00  0.00  0.00  0.00  0.00
  C234                    1.00   0.05  0.00  0.00  0.95  0.00  0.00  0.00  0.00  0.00
  C235                    1.00   0.05  0.00  0.00  0.95  0.00  0.00  0.00  0.00  0.00
  C236                    1.00   0.06  0.00  0.00  0.94  0.00  0.00  0.00  0.00  0.00
  C237                    1.00   0.06  0.00  0.00  0.94  0.00  0.00  0.00  0.00  0.00
  C238                    1.00   0.06  0.00  0.00  0.94  0.00  0.00  0.00  0.00  0.00
  C239                    1.00   0.06  0.00  0.00  0.94  0.00  0.00  0.00  0.00  0.00
  C240                    1.00   0.06  0.00  0.00  0.94  0.00  0.00  0.00  0.00  0.00
  C241                    1.00   0.06  0.00  0.00  0.94  0.00  0.00  0.00  0.00  0.00
  C242                    1.00   0.06  0.00  0.00  0.94  0.00  0.00  0.00  0.00  0.00
  C243                    1.00   0.06  0.00  0.00  0.94  0.00  0.00  0.00  0.00  0.00
  C244                    1.00   0.07  0.00  0.00  0.93  0.01  0.00  0.00  0.00  0.00
  C245                    1.00   0.07  0.00  0.00  0.93  0.00  0.00  0.00  0.00  0.00
  C246                    1.00   0.07  0.00  0.00  0.93  0.00  0.00  0.00  0.57  0.00
  C247                    1.00   0.08  0.00  0.00  0.92  0.00  0.00  0.00  0.00  0.00
  C248                    1.00   0.09  0.00  0.00  0.91  0.00  0.00  0.00  0.00  0.00
  C249                    1.00   0.10  0.00  0.00  0.90  0.00  0.00  0.00  0.00  0.00
  C250                    1.00   0.11  0.00  0.00  0.89  0.00  0.00  0.00  0.00  0.00
  C251                    1.00   0.11  0.00  0.00  0.89  0.00  0.00  0.00  0.00  0.00
  C252                    1.00   0.11  0.00  0.00  0.88  0.00  0.00  0.00  0.00  0.00
  C253                    1.00   0.12  0.00  0.00  0.88  0.00  0.00  0.00  0.01  0.00
  C254                    1.00   0.12  0.00  0.00  0.88  0.00  0.00  0.00  0.40  0.00
  C255                    1.00   0.12  0.00  0.00  0.88  0.00  0.00  0.00  0.00  0.00
  C256                    1.00   0.13  0.00  0.00  0.87  0.00  0.00  0.00  0.00  0.00
  C257                    1.00   0.13  0.00  0.00  0.87  0.00  0.00  0.00  0.00  0.00
  C258                    1.00   0.13  0.00  0.00  0.87  0.00  0.00  0.00  0.00  0.00
  C259                    1.00   0.14  0.00  0.00  0.86  0.00  0.00  0.00  0.00  0.00
  C260                    1.00   0.14  0.00  0.00  0.86  0.00  0.00  0.00  0.00  0.00
  C261                    1.00   0.14  0.00  0.00  0.86  0.00  0.00  0.00  0.00  0.00
  C262                    1.00   0.14  0.00  0.00  0.86  0.00  0.00  0.00  0.00  0.00
  C263                    1.00   0.14  0.00  0.00  0.86  0.00  0.00  0.00  0.00  0.00
  C264                    1.00   0.14  0.00  0.00  0.85  0.00  0.00  0.00  0.00  0.00
  C265                    1.00   0.15  0.00  0.00  0.85  0.00  0.00  0.00  0.00  0.00
  C266                    1.00   0.15  0.00  0.00  0.85  0.00  0.00  0.00  0.00  0.00
  C267                    1.00   0.15  0.00  0.00  0.85  0.00  0.00  0.00  0.00  0.00
  C268                    1.00   0.16  0.00  0.00  0.84  0.00  0.00  0.00  0.00  0.00
  C269                    1.00   0.16  0.00  0.00  0.84  0.00  0.00  0.00  0.00  0.00
  C270                    1.00   0.16  0.00  0.00  0.84  0.00  0.00  0.00  0.00  0.00
  C271                    1.00   0.16  0.00  0.00  0.84  0.00  0.00  0.00  0.00  0.00
  C272                    1.00   0.16  0.00  0.00  0.84  0.00  0.00  0.00  0.00  0.00
  C273                    1.00   0.16  0.00  0.00  0.84  0.00  0.00  0.00  0.00  0.00
  C274                    1.00   0.17  0.00  0.00  0.83  0.00  0.00  0.00  0.00  0.00
  C275                    1.00   0.17  0.00  0.00  0.83  0.00  0.00  0.00  0.00  0.00
  C276                    1.00   0.17  0.00  0.00  0.83  0.00  0.00  0.00  0.00  0.00
  C277                    1.00   0.17  0.00  0.00  0.83  0.00  0.00  0.00  0.00  0.00
  C278                    1.00   0.17  0.00  0.00  0.83  0.00  0.00  0.00  0.00  0.00
  C279                    1.00   0.17  0.00  0.00  0.83  0.00  0.00  0.00  0.00  0.00
  C280                    1.00   0.18  0.00  0.00  0.82  0.00  0.00  0.00  0.00  0.00
  C281                    1.00   0.18  0.00  0.00  0.82  0.00  0.00  0.00  0.00  0.00
  C282                    1.00   0.18  0.00  0.00  0.82  0.00  0.00  0.00  0.00  0.00
  C283                    1.00   0.18  0.00  0.00  0.82  0.00  0.00  0.00  0.00  0.00
  C284                    1.00   0.18  0.00  0.00  0.82  0.00  0.00  0.00  0.00  0.00
  C285                    1.00   0.18  0.00  0.00  0.82  0.00  0.00  0.00  0.00  0.00
  C286                    1.00   0.18  0.00  0.00  0.82  0.00  0.00  0.00  0.35  0.00
  C287                    1.00   0.17  0.01  0.00  0.82  0.00  0.00  0.00  0.35  0.00
  C288                    1.00   0.17  0.00  0.00  0.83  0.00  0.00  0.00  0.23  0.00
  C289                    1.00   0.19  0.00  0.00  0.81  0.00  0.00  0.00  0.00  0.00
  C290                    1.00   0.17  0.02  0.00  0.81  0.00  0.00  0.00  0.09  0.00
  C291                    1.00   0.17  0.00  0.00  0.83  0.00  0.00  0.00  0.00  0.00
  C292                    1.00   0.19  0.00  0.00  0.81  0.00  0.00  0.00  0.28  0.00
  C293                    1.00   0.19  0.00  0.00  0.81  0.00  0.00  0.00  0.00  0.00
  C294                    1.00   0.19  0.00  0.00  0.81  0.00  0.00  0.00  0.25  0.00
  C295                    1.00   0.19  0.00  0.00  0.81  0.00  0.00  0.00  0.00  0.00
  C296                    1.00   0.18  0.01  0.00  0.80  0.00  0.00  0.00  0.00  0.00
  C297                    1.00   0.18  0.00  0.00  0.82  0.00  0.00  0.00  0.10  0.00
  C298                    1.00   0.20  0.00  0.00  0.80  0.00  0.00  0.00  0.14  0.00
  C299                    1.00   0.20  0.00  0.00  0.80  0.00  0.00  0.00  0.00  0.00
  C300                    1.00   0.20  0.00  0.00  0.80  0.00  0.00  0.00  0.00  0.00
  C301                    1.00   0.20  0.00  0.00  0.80  0.00  0.00  0.00  0.00  0.00
  C302                    1.00   0.00  0.00  0.00  1.00  0.00  0.00  0.00  0.00  0.00
  C303                    1.00   0.00  0.00  0.00  1.00  0.00  0.00  0.00  0.00  0.00
  C353                    1.00   0.19  0.00  0.00  0.00  0.00  0.00  0.81  0.00  0.00
  
  
  *************************
  Conduit Surcharge Summary
  *************************
  
  ----------------------------------------------------------------------------
                                                           Hours        Hours 
                         --------- Hours Full --------   Above Full   Capacity
  Conduit                Both Ends  Upstream  Dnstream   Normal Flow   Limited
  ----------------------------------------------------------------------------
  FID4498                     0.01      0.01      0.75      0.01         0.01
  FID4882                     0.01      0.01      1.32      0.01         0.01
  FID4914                     0.01      0.01      1.37      0.01         0.01
  C199                        0.01      0.01      0.01      8.51         0.01
  C200                        0.01      0.01      0.01      8.44         0.01
  
  
  ***************************
  Link Pollutant Load Summary
  ***************************
  
  --------------------------------------------------------------
                                 TSS            TP           TDP
  Link                            kg            kg            kg
  --------------------------------------------------------------
  FID1123                     11.903         0.001         0.004
  FID1139                     85.626         0.014         0.025
  FID1148                    142.209         0.033         0.073
  FID1149                    139.307         0.033         0.072
  FID3364                    157.028         0.040         0.096
  FID3671                      5.559         0.003         0.012
  FID3672                     34.622         0.012         0.021
  FID3762                     69.991         0.037         0.110
  FID3765                    129.959         0.054         0.154
  FID4112                     54.445         0.019         0.039
  FID4186                      7.546         0.005         0.021
  FID4187                      7.318         0.005         0.021
  FID4201                     31.389         0.015         0.030
  FID4202                     29.108         0.014         0.030
  FID4203                      0.000         0.000         0.000
  FID4299                      4.214         0.003         0.007
  FID4372                    662.566         0.602         0.628
  FID4498                    111.177         0.006         0.025
  FID4806                   1144.065         0.860         0.726
  FID4807                      0.000         0.001         0.000
  FID4882                      0.028         0.000         0.000
  FID4884                     59.304         0.006         0.017
  FID4914                     15.052         0.009         0.026
  FID4915                      1.653         0.001         0.001
  FID4916                      0.136         0.001         0.001
  FID4917                      0.023         0.001         0.000
  FID5307                     13.794         0.004         0.007
  FID5308                      4.603         0.003         0.006
  FID5312                     11.524         0.004         0.007
  FID5865                   1827.681         0.295         0.328
  C9                         151.929         1.047         1.326
  C12                        150.609         1.033         1.308
  C13                        171.598         1.034         1.314
  C14                        112.859         0.681         0.869
  C52                        192.274         0.063         0.152
  C130                        22.116         0.004         0.008
  C131                        18.791         0.004         0.008
  C139                         0.008         0.000         0.001
  C191                       152.517         0.690         0.895
  C193                       151.389         0.673         0.873
  C194                       150.022         0.669         0.870
  C195                       149.712         0.667         0.868
  C196                       147.293         0.691         0.886
  C197                       279.464         0.719         1.018
  C198                       349.203         0.754         1.125
  C199                       349.325         0.751         1.122
  C200                       348.831         0.748         1.119
  C201                       349.820         0.744         1.114
  C202                       354.073         0.743         1.117
  C203                       354.044         0.741         1.113
  C204                       352.599         0.739         1.111
  C205                       476.606         0.767         1.159
  C206                       530.528         0.783         1.196
  C207                       532.005         0.780         1.192
  C208                       537.365         0.780         1.204
  C209                       534.444         0.777         1.200
  C210                       534.635         0.775         1.199
  C211                       534.078         0.774         1.197
  C212                       685.627         0.829         1.338
  C213                       687.776         0.829         1.338
  C214                       688.188         0.828         1.337
  C215                       717.588         0.829         1.373
  C216                       696.670         0.818         1.357
  C217                       726.220         0.831         1.384
  C218                       917.461         0.892         1.533
  C219                       919.534         0.889         1.531
  C220                       920.100         0.885         1.526
  C221                       933.120         0.890         1.554
  C222                      1017.715         0.914         1.607
  C223                      1145.430         0.946         1.658
  C224                      1155.197         0.943         1.656
  C225                      1160.037         0.940         1.660
  C226                      1160.009         0.936         1.656
  C227                      1202.536         0.935         1.675
  C228                      1169.661         0.929         1.690
  C229                      1285.746         0.974         1.830
  C230                      1288.036         0.975         1.834
  C231                      1303.514         0.974         1.835
  C232                      1294.356         0.968         1.825
  C233                      1322.606         0.967         1.839
  C234                      1293.824         0.959         1.824
  C235                      1303.380         0.963         1.829
  C236                      1964.886         1.563         2.456
  C237                      1977.942         1.567         2.461
  C238                      2120.475         1.615         2.581
  C239                      2112.142         1.609         2.573
  C240                      2105.922         1.606         2.568
  C241                      2110.253         1.608         2.573
  C242                      2126.293         1.613         2.581
  C243                      2175.231         1.631         2.617
  C244                      2138.438         1.613         2.613
  C245                      2140.321         1.613         2.613
  C246                      3381.216         2.525         3.369
  C247                      3298.998         2.475         3.352
  C248                      3328.114         2.486         3.358
  C249                      3285.710         2.462         3.337
  C250                      3284.798         2.462         3.338
  C251                      3286.327         2.461         3.338
  C252                      3440.215         2.499         3.431
  C253                      3460.219         2.507         3.435
  C254                      3472.968         2.511         3.436
  C255                      3468.668         2.505         3.430
  C256                      3566.849         2.503         3.446
  C257                      3554.184         2.498         3.448
  C258                      3555.050         2.498         3.446
  C259                      3577.257         2.504         3.450
  C260                      3554.845         2.495         3.441
  C261                      3619.129         2.501         3.458
  C262                      3648.080         2.506         3.458
  C263                      3626.706         2.497         3.448
  C264                      3621.437         2.493         3.442
  C265                      5437.869         2.784         3.768
  C266                      5451.237         2.786         3.769
  C267                      5446.775         2.784         3.766
  C268                      5462.002         2.785         3.767
  C269                      5445.087         2.779         3.764
  C270                      5462.757         2.781         3.765
  C271                      5446.941         2.778         3.761
  C272                      5443.966         2.777         3.760
  C273                      5601.433         2.812         3.833
  C274                      5596.837         2.809         3.830
  C275                      5592.783         2.807         3.827
  C276                      5591.026         2.806         3.825
  C277                      5586.960         2.804         3.823
  C278                      5586.356         2.803         3.821
  C279                      5589.654         2.803         3.819
  C280                      5584.214         2.801         3.818
  C281                      5667.986         2.815         3.842
  C282                      5672.348         2.814         3.841
  C283                      5690.964         2.818         3.847
  C284                      5692.716         2.817         3.846
  C285                      5695.861         2.817         3.845
  C286                      5698.484         2.816         3.843
  C287                      5698.506         2.815         3.841
  C288                      5695.626         2.813         3.840
  C289                      5694.840         2.813         3.838
  C290                      5695.629         2.812         3.837
  C291                      5688.908         2.811         3.835
  C292                      5788.097         2.819         3.861
  C293                      5786.177         2.818         3.860
  C294                      5788.167         2.817         3.858
  C295                      5782.394         2.816         3.857
  C296                      5784.013         2.816         3.856
  C297                      5788.134         2.815         3.855
  C298                      5788.904         2.815         3.854
  C299                      5784.702         2.814         3.852
  C300                      5788.275         2.813         3.851
  C301                      5783.984         2.812         3.849
  C302                       151.429         1.043         1.321
  C303                       152.130         0.684         0.886
  C353                        90.315         0.008         0.026
  

  Analysis begun on:  Tue Oct 10 17:07:49 2017
  Analysis ended on:  Tue Oct 10 17:08:04 2017
  Total elapsed time: 00:00:15