
  EPA STORM WATER MANAGEMENT MODEL - VERSION 5.1 (Build 5.1.010)
  --------------------------------------------------------------

  WARNING 04: minimum elevation drop used for Conduit C199
  WARNING 04: minimum elevation drop used for Conduit C200
  WARNING 02: maximum depth increased for Node FID1955
  WARNING 02: maximum depth increased for Node FID1960
  WARNING 02: maximum depth increased for Node FID1965
  WARNING 02: maximum depth increased for Node FID1968
  WARNING 02: maximum depth increased for Node FID2244
  WARNING 02: maximum depth increased for Node FID2442
  WARNING 02: maximum depth increased for Node FID2446
  WARNING 02: maximum depth increased for Node FID5504
  WARNING 02: maximum depth increased for Node FID5527
  WARNING 02: maximum depth increased for Node AFID6926
  WARNING 02: maximum depth increased for Node AFID7376
  
  *********************************************************
  NOTE: The summary statistics displayed in this report are
  based on results found at every computational time step,  
  not just on results from each reporting time step.
  *********************************************************
  
  ****************
  Analysis Options
  ****************
  Flow Units ............... CMS
  Process Models:
    Rainfall/Runoff ........ YES
    RDII ................... NO
    Snowmelt ............... NO
    Groundwater ............ NO
    Flow Routing ........... YES
    Ponding Allowed ........ YES
    Water Quality .......... YES
  Infiltration Method ...... GREEN_AMPT
  Flow Routing Method ...... DYNWAVE
  Starting Date ............ MAY-06-2016 15:00:00
  Ending Date .............. MAY-07-2016 00:00:00
  Antecedent Dry Days ...... 0.0
  Report Time Step ......... 00:01:00
  Wet Time Step ............ 00:01:00
  Dry Time Step ............ 01:00:00
  Routing Time Step ........ 5.00 sec
  Variable Time Step ....... YES
  Maximum Trials ........... 8
  Number of Threads ........ 3
  Head Tolerance ........... 0.001500 m
  
  
  **************************        Volume         Depth
  Runoff Quantity Continuity     hectare-m            mm
  **************************     ---------       -------
  Total Precipitation ......         2.583         6.709
  Evaporation Loss .........         0.000         0.000
  Infiltration Loss ........         1.156         3.002
  Surface Runoff ...........         0.366         0.950
  Final Storage ............         1.062         2.759
  Continuity Error (%) .....        -0.016
  
  
  **************************           TSS            TP           TDP
  Runoff Quality Continuity             kg            kg            kg
  **************************    ----------    ----------    ----------
  Initial Buildup ..........         0.000         0.000         0.000
  Surface Buildup ..........     22773.869        10.784        21.177
  Wet Deposition ...........         0.000         0.000         0.000
  Sweeping Removal .........         0.000         0.000         0.000
  Infiltration Loss ........         0.000         0.000         0.000
  BMP Removal ..............         0.943         0.000         0.001
  Surface Runoff ...........      9426.558         3.353         5.282
  Remaining Buildup ........     13346.368         7.430        15.894
  Continuity Error (%) .....         0.000         0.000         0.000
  
  
  **************************        Volume        Volume
  Flow Routing Continuity        hectare-m      10^6 ltr
  **************************     ---------     ---------
  Dry Weather Inflow .......         0.000         0.000
  Wet Weather Inflow .......         0.366         3.658
  Groundwater Inflow .......         0.000         0.000
  RDII Inflow ..............         0.000         0.000
  External Inflow ..........         1.384        13.843
  External Outflow .........         1.421        14.206
  Flooding Loss ............         0.000         0.000
  Evaporation Loss .........         0.000         0.000
  Exfiltration Loss ........         0.000         0.000
  Initial Stored Volume ....         0.000         0.000
  Final Stored Volume ......         0.332         3.323
  Continuity Error (%) .....        -0.167
  
  
  **************************           TSS            TP           TDP
  Quality Routing Continuity            kg            kg            kg
  **************************    ----------    ----------    ----------
  Dry Weather Inflow .......         0.000         0.000         0.000
  Wet Weather Inflow .......      9065.267         3.338         5.206
  Groundwater Inflow .......         0.000         0.000         0.000
  RDII Inflow ..............         0.000         0.000         0.000
  External Inflow ..........       137.985         1.039         1.284
  External Outflow .........      8649.580         4.159         6.168
  Flooding Loss ............         0.000         0.000         0.000
  Exfiltration Loss ........         0.000         0.000         0.000
  Mass Reacted .............         0.000         0.000         0.000
  Initial Stored Mass ......         0.000         0.000         0.000
  Final Stored Mass ........        28.747         0.229         0.299
  Continuity Error (%) .....         5.704        -0.255         0.352
  
  
  *************************
  Highest Continuity Errors
  *************************
  Node FID2827 (9.23%)
  Node FID2824 (9.11%)
  Node FID2241 (2.14%)
  Node FID5785 (1.91%)
  Node FID2711 (1.56%)
  
  
  ***************************
  Time-Step Critical Elements
  ***************************
  Link C241 (95.43%)
  Link C14 (4.04%)
  
  
  ********************************
  Highest Flow Instability Indexes
  ********************************
  All links are stable.
  
  
  *************************
  Routing Time Step Summary
  *************************
  Minimum Time Step           :     0.72 sec
  Average Time Step           :     0.95 sec
  Maximum Time Step           :     5.00 sec
  Percent in Steady State     :     0.00
  Average Iterations per Step :     2.00
  Percent Not Converging      :     0.00
  
  
  ***************************
  Subcatchment Runoff Summary
  ***************************
  
  --------------------------------------------------------------------------------------------------------
                            Total      Total      Total      Total      Total       Total     Peak  Runoff
                           Precip      Runon       Evap      Infil     Runoff      Runoff   Runoff   Coeff
  Subcatchment                 mm         mm         mm         mm         mm    10^6 ltr      CMS
  --------------------------------------------------------------------------------------------------------
  S0                         5.84       0.00       0.00       5.01       0.13        0.00     0.00   0.022
  S1                         5.84       0.00       0.00       2.42       0.54        0.05     0.01   0.092
  S2                         6.35       0.00       0.00       1.71       0.73        0.13     0.03   0.115
  S3                         5.84       0.00       0.00       3.72       0.34        0.01     0.01   0.058
  S4                         5.84       0.00       0.00       2.63       0.51        0.05     0.03   0.087
  S6                         6.35       0.00       0.00       0.75       0.88        0.02     0.00   0.139
  S7                         6.35       0.00       0.00       1.06       2.80        1.10     0.30   0.442
  S8                         6.35       0.00       0.00       0.75       0.88        0.00     0.00   0.139
  S9                         6.35       0.00       0.00       1.51       0.76        0.00     0.00   0.120
  S10                        6.35       0.00       0.00       1.63       0.74        0.00     0.00   0.117
  S11                        6.35       0.00       0.00       4.92       0.23        0.00     0.00   0.036
  S12                        6.35       0.00       0.00       1.88       0.71        0.00     0.00   0.111
  S13                        6.35       0.00       0.00       2.14       0.66        0.05     0.01   0.104
  S14                        6.35       0.00       0.00       4.34       0.32        0.00     0.00   0.050
  S16                        6.35       0.00       0.00       1.15       4.31        0.24     0.07   0.678
  S17                        6.35       0.00       0.00       1.82       0.71        0.14     0.03   0.112
  S18                        6.35       0.00       0.00       1.13       0.82        0.00     0.00   0.130
  S19                        6.35       0.00       0.00       3.31       0.48        0.01     0.00   0.075
  S20                        6.35       0.00       0.00       1.99       0.69        0.00     0.00   0.108
  S21                        6.35       0.00       0.00       3.60       0.68        0.36     0.15   0.107
  S22                        6.35       0.00       0.00       1.44       0.77        0.00     0.00   0.122
  S23                        6.35       0.00       0.00       3.69       0.42        0.01     0.00   0.066
  S24                        6.35       0.00       0.00       3.47       0.45        0.01     0.00   0.072
  S25                        6.35       0.00       0.00       2.21       0.65        0.01     0.00   0.103
  S27                        6.35       0.00       0.00       2.58       0.59        0.00     0.00   0.094
  S28                        5.84       0.00       0.00       5.83       0.00        0.00     0.00   0.000
  S29                        5.84       0.00       0.00       5.80       0.01        0.00     0.00   0.001
  S30                        6.35       0.00       0.00       6.33       0.00        0.00     0.00   0.001
  S31                        6.35       0.00       0.00       6.34       0.00        0.00     0.00   0.000
  S32                        6.35       0.00       0.00       4.58       0.28        0.00     0.00   0.044
  S33                        6.35       0.00       0.00       1.26       0.80        0.01     0.00   0.126
  S34                        6.35       0.00       0.00       3.77       1.29        0.46     0.14   0.204
  S35                        6.35       0.00       0.00       3.45       0.46        0.00     0.00   0.072
  S36                        6.35       0.00       0.00       4.98       0.22        0.00     0.00   0.034
  S37                        6.35       0.00       0.00       1.60       0.75        0.00     0.00   0.118
  S39                        6.35       0.00       0.00       3.60       0.43        0.06     0.02   0.068
  S40                        6.35       0.00       0.00       4.31       0.32        0.01     0.00   0.051
  S41                        6.35       0.00       0.00       1.96       0.69        0.09     0.03   0.109
  S42                        6.35       0.00       0.00       2.38       0.62        0.06     0.02   0.098
  S43                        6.35       0.00       0.00       4.65       0.27        0.01     0.00   0.042
  S44                        6.35       0.00       0.00       2.45       0.61        0.14     0.05   0.097
  S45                        8.13       0.00       0.00       4.32       0.61        0.00     0.00   0.075
  S47                        8.13       0.00       0.00       3.18       0.79        0.03     0.02   0.097
  S48                        8.13       0.00       0.00       3.88       0.68        0.00     0.00   0.084
  S49                        8.13       0.00       0.00       3.35       0.75        0.14     0.08   0.093
  S51                        8.13       0.00       0.00       6.90       0.20        0.00     0.00   0.024
  S52                        8.13       0.00       0.00       3.68       0.71        0.05     0.03   0.087
  S53                        8.13       0.00       0.00       3.53       0.73        0.10     0.06   0.089
  S54                        8.13       0.00       0.00       4.65       0.55        0.05     0.01   0.067
  S55                        8.13       0.00       0.00       3.70       0.70        0.11     0.03   0.086
  S56                        8.13       0.00       0.00       5.74       0.38        0.00     0.00   0.046
  S57                        8.13       0.00       0.00       3.13       0.79        0.01     0.00   0.097
  S58                        8.13       0.00       0.00       4.06       0.64        0.03     0.01   0.079
  S59                        8.13       0.00       0.00       6.92       0.19        0.00     0.00   0.023
  S60                        8.13       0.00       0.00       5.63       0.39        0.01     0.00   0.048
  S61                        8.13       0.00       0.00       7.09       0.16        0.00     0.00   0.020
  S62                        8.13       0.00       0.00       6.57       0.25        0.01     0.00   0.031
  S63                        6.35       0.00       0.00       5.28       0.17        0.00     0.00   0.027
  S64                        6.35       0.00       0.00       2.66       0.58        0.01     0.00   0.092
  S65                        6.35       0.00       0.00       4.10       0.35        0.06     0.02   0.056
  
  
  ****************************
  Subcatchment Washoff Summary
  ****************************
  
  --------------------------------------------------------------
                                 TSS            TP           TDP
  Subcatchment                    kg            kg            kg
  --------------------------------------------------------------
  S0                           0.000         0.000         0.001
  S1                         293.832         0.072         0.034
  S2                         502.995         0.116         0.188
  S3                          80.691         0.004         0.012
  S4                         311.651         0.059         0.085
  S6                          45.819         0.015         0.024
  S7                         452.357         0.474         0.117
  S8                           0.939         0.000         0.000
  S9                           1.100         0.000         0.000
  S10                         12.155         0.000         0.002
  S11                          0.022         0.000         0.000
  S12                          0.646         0.000         0.000
  S13                        182.555         0.039         0.043
  S14                          2.831         0.003         0.018
  S16                         76.349         0.027         0.067
  S17                        560.298         0.139         0.230
  S18                          1.144         0.000         0.000
  S19                         45.527         0.021         0.056
  S20                         20.956         0.002         0.009
  S21                       1635.834         0.625         0.480
  S22                          7.331         0.000         0.002
  S23                         20.609         0.019         0.073
  S24                         59.952         0.007         0.010
  S25                         40.179         0.018         0.050
  S27                         23.163         0.003         0.012
  S28                          0.000         0.000         0.000
  S29                          0.000         0.000         0.000
  S30                          0.000         0.000         0.000
  S31                          0.000         0.000         0.000
  S32                          7.208         0.004         0.015
  S33                         46.733         0.008         0.018
  S34                        184.617         0.268         0.373
  S35                         12.356         0.002         0.008
  S36                         18.820         0.009         0.039
  S37                         22.597         0.006         0.016
  S39                        354.033         0.111         0.301
  S40                         25.143         0.021         0.086
  S41                        442.319         0.081         0.145
  S42                        359.177         0.087         0.131
  S43                         26.702         0.018         0.074
  S44                        736.397         0.194         0.333
  S45                          1.955         0.000         0.001
  S47                        139.586         0.035         0.108
  S48                         12.670         0.001         0.004
  S49                        624.322         0.191         0.438
  S51                         13.733         0.007         0.035
  S52                        223.346         0.066         0.155
  S53                        440.605         0.121         0.252
  S54                        229.817         0.089         0.240
  S55                        517.345         0.171         0.358
  S56                          0.195         0.000         0.000
  S57                         31.327         0.016         0.031
  S58                        136.478         0.028         0.045
  S59                         18.778         0.005         0.017
  S60                         20.818         0.026         0.103
  S61                          7.295         0.004         0.021
  S62                         34.249         0.020         0.096
  S63                         14.695         0.007         0.036
  S64                         44.767         0.020         0.066
  S65                        299.539         0.093         0.221
  --------------------------------------------------------------
  System                    9426.558         3.353         5.282
  
  
  ******************
  Node Depth Summary
  ******************
  
  ---------------------------------------------------------------------------------
                                 Average  Maximum  Maximum  Time of Max    Reported
                                   Depth    Depth      HGL   Occurrence   Max Depth
  Node                 Type       Meters   Meters   Meters  days hr:min      Meters
  ---------------------------------------------------------------------------------
  FID1936              JUNCTION     0.13     0.25  1376.55     0  04:05        0.08
  FID1955              JUNCTION     0.13     0.22  1376.14     0  04:15        0.07
  FID1960              JUNCTION     0.13     0.20  1376.06     0  04:15        0.06
  FID1965              JUNCTION     0.13     0.20  1376.50     0  04:15        0.06
  FID1968              JUNCTION     0.12     0.18  1376.58     0  04:14        0.05
  FID2239              JUNCTION     0.13     0.22  1374.73     0  03:30        0.07
  FID2241              JUNCTION     0.11     0.18  1373.31     0  03:30        0.05
  FID2242              JUNCTION     0.12     0.18  1374.22     0  03:30        0.06
  FID2244              JUNCTION     0.12     0.17  1374.53     0  03:30        0.05
  FID2440              JUNCTION     0.23     0.27  1374.52     0  04:10        0.08
  FID2442              JUNCTION     0.00     0.00  1375.27     0  00:00        0.00
  FID2446              JUNCTION     0.13     0.28  1376.08     0  04:05        0.08
  FID2447              JUNCTION     0.13     0.26  1375.96     0  04:05        0.08
  FID2455              JUNCTION     0.15     0.18  1374.17     0  04:12        0.06
  FID2711              JUNCTION     0.12     0.19  1370.37     0  04:05        0.06
  FID2719              JUNCTION     0.14     0.27  1370.37     0  04:05        0.08
  FID2720              JUNCTION     0.13     0.26  1370.46     0  04:05        0.08
  FID2824              JUNCTION     0.11     0.16  1371.44     0  04:10        0.05
  FID2827              JUNCTION     0.12     0.19  1371.49     0  04:10        0.06
  FID2828              JUNCTION     0.12     0.19  1371.51     0  03:26        0.06
  FID2832              JUNCTION     0.14     0.22  1370.82     0  04:10        0.07
  FID2833              JUNCTION     0.16     0.31  1370.93     0  04:10        0.09
  FID2839              JUNCTION     0.17     0.33  1371.53     0  04:20        0.10
  FID2873              JUNCTION     0.13     0.21  1370.91     0  04:10        0.06
  FID2964              JUNCTION     0.15     0.29  1371.07     0  04:20        0.09
  FID2965              JUNCTION     0.22     0.34  1370.60     0  04:24        0.10
  FID4584              JUNCTION     0.00     0.00  1371.34     0  00:00        0.00
  FID5068              JUNCTION     0.12     0.17  1375.55     0  03:30        0.05
  FID5072              JUNCTION     0.25     0.32  1373.61     0  04:20        0.10
  FID5140              JUNCTION     0.15     0.29  1373.51     0  04:20        0.09
  FID5435              JUNCTION     0.15     0.29  1373.04     0  04:20        0.09
  FID5437              JUNCTION     0.11     0.16  1373.11     0  03:30        0.05
  FID5503              JUNCTION     0.09     0.14  1371.47     0  09:00        0.04
  FID5504              JUNCTION     0.13     0.19  1371.55     0  04:10        0.06
  FID5527              JUNCTION     0.13     0.18  1372.68     0  04:10        0.05
  FID5568              JUNCTION     0.26     0.34  1372.73     0  04:21        0.10
  FID5784              JUNCTION     0.27     0.36  1372.35     0  04:22        0.11
  FID5785              JUNCTION     0.12     0.20  1374.63     0  03:31        0.06
  AFID6926             JUNCTION     0.13     0.20  1370.00     0  04:15        0.06
  AFID7360             JUNCTION     0.25     0.42  1370.55     0  04:23        0.13
  AFID7363             JUNCTION     0.23     0.39  1370.56     0  04:23        0.12
  AFID7376             JUNCTION     0.15     0.26  1371.49     0  04:10        0.08
  AFID7377             JUNCTION     0.23     0.33  1371.01     0  04:26        0.10
  AFID7705             JUNCTION     0.35     0.37  1375.33     0  04:15        0.11
  AFID7706             JUNCTION     0.40     0.42  1375.34     0  04:15        0.13
  AFID7792             JUNCTION     0.14     0.26  1375.06     0  03:30        0.08
  AFID8223             JUNCTION     0.27     0.36  1372.36     0  04:22        0.11
  J1                   JUNCTION     0.56     0.56  1375.55     0  04:15        0.17
  FID4901              JUNCTION     0.28     0.30  1375.37     0  04:15        0.09
  J9                   JUNCTION     0.45     0.45  1375.54     0  04:15        0.14
  J11                  JUNCTION     0.29     0.29  1375.50     0  04:15        0.09
  J12                  JUNCTION     0.28     0.29  1375.41     0  04:15        0.09
  J13                  JUNCTION     0.28     0.29  1375.37     0  04:15        0.09
  FID4902              JUNCTION     0.30     0.32  1375.36     0  04:15        0.10
  J14                  JUNCTION     0.23     0.26  1375.17     0  04:05        0.08
  J15                  JUNCTION     0.21     0.24  1374.90     0  04:05        0.07
  J16                  JUNCTION     0.22     0.25  1374.89     0  04:06        0.08
  FID2449              JUNCTION     0.23     0.27  1374.59     0  04:10        0.08
  J17                  JUNCTION     0.13     0.15  1374.12     0  04:12        0.05
  J19                  JUNCTION     0.20     0.25  1373.80     0  04:16        0.08
  FID5069              JUNCTION     0.28     0.35  1373.61     0  04:20        0.11
  FID5139              JUNCTION     0.27     0.36  1372.71     0  04:20        0.11
  J24                  JUNCTION     0.28     0.36  1372.72     0  04:20        0.11
  FID4984              JUNCTION     0.30     0.39  1372.35     0  04:22        0.12
  FID2669              JUNCTION     0.21     0.35  1368.79     0  04:26        0.11
  FID2712              JUNCTION     0.21     0.36  1369.56     0  04:25        0.11
  FID2718              JUNCTION     0.22     0.37  1369.61     0  04:25        0.11
  FID2838              JUNCTION     0.36     0.54  1370.48     0  04:22        0.17
  FID2825              JUNCTION     0.40     0.59  1370.50     0  04:22        0.18
  FID2823              JUNCTION     0.45     0.65  1370.52     0  04:23        0.20
  FID5505              JUNCTION     0.32     0.51  1370.53     0  04:23        0.15
  FID5436              JUNCTION     0.33     0.43  1371.75     0  04:22        0.13
  FID5438              JUNCTION     0.24     0.34  1371.76     0  04:22        0.10
  J49                  JUNCTION     0.32     0.34  1375.36     0  04:15        0.10
  J50                  JUNCTION     0.37     0.38  1375.35     0  04:15        0.12
  J51                  JUNCTION     0.43     0.45  1375.34     0  04:15        0.14
  J52                  JUNCTION     0.44     0.46  1375.34     0  04:15        0.14
  J53                  JUNCTION     0.23     0.26  1375.18     0  04:05        0.08
  J54                  JUNCTION     0.24     0.26  1375.21     0  04:06        0.08
  J55                  JUNCTION     0.28     0.30  1375.32     0  04:15        0.09
  J56                  JUNCTION     0.26     0.28  1375.30     0  04:15        0.09
  J57                  JUNCTION     0.24     0.26  1375.28     0  04:15        0.08
  J58                  JUNCTION     0.24     0.26  1375.23     0  04:06        0.08
  FID1935              JUNCTION     0.24     0.27  1375.16     0  04:05        0.08
  J59                  JUNCTION     0.24     0.27  1375.14     0  04:05        0.08
  J60                  JUNCTION     0.24     0.27  1375.09     0  04:06        0.08
  J61                  JUNCTION     0.22     0.25  1375.02     0  04:07        0.08
  J62                  JUNCTION     0.21     0.24  1374.99     0  04:07        0.07
  J63                  JUNCTION     0.22     0.25  1374.93     0  04:07        0.08
  J64                  JUNCTION     0.21     0.24  1374.86     0  04:07        0.07
  J65                  JUNCTION     0.16     0.20  1374.77     0  04:08        0.06
  J66                  JUNCTION     0.23     0.27  1374.48     0  04:10        0.08
  J67                  JUNCTION     0.23     0.27  1374.42     0  04:11        0.08
  J68                  JUNCTION     0.23     0.27  1374.33     0  04:12        0.08
  J69                  JUNCTION     0.30     0.36  1374.09     0  04:13        0.11
  J70                  JUNCTION     0.30     0.35  1374.00     0  04:14        0.11
  J71                  JUNCTION     0.29     0.34  1373.93     0  04:14        0.10
  J72                  JUNCTION     0.27     0.33  1373.68     0  04:19        0.10
  J73                  JUNCTION     0.28     0.35  1373.57     0  04:20        0.11
  J74                  JUNCTION     0.28     0.35  1373.33     0  04:21        0.11
  J75                  JUNCTION     0.29     0.35  1373.20     0  04:23        0.11
  J76                  JUNCTION     0.27     0.36  1372.70     0  04:20        0.11
  J77                  JUNCTION     0.27     0.36  1372.57     0  04:21        0.11
  J78                  JUNCTION     0.27     0.36  1372.43     0  04:21        0.11
  J79                  JUNCTION     0.27     0.36  1372.37     0  04:22        0.11
  J80                  JUNCTION     0.22     0.30  1371.79     0  04:23        0.09
  J81                  JUNCTION     0.33     0.43  1371.43     0  04:24        0.13
  J82                  JUNCTION     0.34     0.44  1371.37     0  04:24        0.13
  J83                  JUNCTION     0.23     0.34  1371.14     0  04:25        0.10
  J84                  JUNCTION     0.21     0.31  1370.95     0  04:26        0.09
  J85                  JUNCTION     0.21     0.31  1370.83     0  04:27        0.09
  J86                  JUNCTION     0.21     0.31  1370.69     0  04:27        0.10
  J87                  JUNCTION     0.22     0.38  1370.57     0  04:23        0.11
  J88                  JUNCTION     0.30     0.49  1370.53     0  04:23        0.15
  J89                  JUNCTION     0.35     0.54  1370.53     0  04:23        0.16
  J90                  JUNCTION     0.31     0.50  1370.45     0  04:22        0.15
  J91                  JUNCTION     0.31     0.50  1370.39     0  04:22        0.15
  J92                  JUNCTION     0.31     0.50  1370.34     0  04:23        0.15
  J93                  JUNCTION     0.31     0.50  1370.23     0  04:23        0.15
  J94                  JUNCTION     0.31     0.50  1370.16     0  04:23        0.15
  J95                  JUNCTION     0.31     0.50  1370.14     0  04:23        0.15
  J96                  JUNCTION     0.30     0.50  1370.06     0  04:24        0.15
  J97                  JUNCTION     0.30     0.50  1369.99     0  04:24        0.15
  J98                  JUNCTION     0.30     0.49  1369.94     0  04:24        0.15
  J99                  JUNCTION     0.30     0.48  1369.88     0  04:24        0.15
  J100                 JUNCTION     0.29     0.47  1369.83     0  04:24        0.14
  J101                 JUNCTION     0.27     0.44  1369.76     0  04:24        0.13
  J102                 JUNCTION     0.22     0.37  1369.63     0  04:25        0.11
  J103                 JUNCTION     0.22     0.37  1369.59     0  04:25        0.11
  J104                 JUNCTION     0.21     0.36  1369.52     0  04:25        0.11
  J105                 JUNCTION     0.21     0.36  1369.48     0  04:25        0.11
  J106                 JUNCTION     0.21     0.35  1369.42     0  04:25        0.11
  J107                 JUNCTION     0.21     0.35  1369.28     0  04:25        0.11
  J108                 JUNCTION     0.21     0.35  1369.14     0  04:26        0.11
  J109                 JUNCTION     0.21     0.35  1369.03     0  04:26        0.11
  J110                 JUNCTION     0.21     0.35  1368.93     0  04:26        0.11
  J111                 JUNCTION     0.21     0.35  1368.83     0  04:26        0.11
  J112                 JUNCTION     0.21     0.35  1368.67     0  04:26        0.11
  J113                 JUNCTION     0.21     0.35  1368.58     0  04:27        0.11
  J114                 JUNCTION     0.21     0.35  1368.46     0  04:26        0.11
  J115                 JUNCTION     0.21     0.35  1368.40     0  04:26        0.11
  J116                 JUNCTION     0.21     0.35  1368.33     0  04:26        0.11
  J117                 JUNCTION     0.21     0.35  1368.23     0  04:26        0.11
  J118                 JUNCTION     0.21     0.35  1368.13     0  04:27        0.11
  J119                 JUNCTION     0.21     0.36  1368.07     0  04:27        0.11
  J120                 JUNCTION     0.24     0.39  1368.00     0  04:27        0.12
  FID2451              JUNCTION     0.22     0.26  1374.55     0  04:10        0.08
  J121                 JUNCTION     0.20     0.31  1371.05     0  04:25        0.09
  J122                 JUNCTION     0.21     0.32  1371.03     0  04:26        0.10
  FID3706              JUNCTION     0.31     0.50  1370.24     0  04:23        0.15
  FID2831              JUNCTION     0.31     0.50  1370.13     0  04:23        0.15
  FID2689              OUTFALL      0.23     0.39  1367.89     0  04:27        0.12
  
  
  *******************
  Node Inflow Summary
  *******************
  
  -------------------------------------------------------------------------------------------------
                                  Maximum  Maximum                  Lateral       Total        Flow
                                  Lateral    Total  Time of Max      Inflow      Inflow     Balance
                                   Inflow   Inflow   Occurrence      Volume      Volume       Error
  Node                 Type           CMS      CMS  days hr:min    10^6 ltr    10^6 ltr     Percent
  -------------------------------------------------------------------------------------------------
  FID1936              JUNCTION     0.033    0.033     0  04:05      0.0473      0.0473       0.363
  FID1955              JUNCTION     0.028    0.028     0  04:15       0.114       0.114       0.155
  FID1960              JUNCTION     0.013    0.013     0  04:15      0.0518      0.0518       0.337
  FID1965              JUNCTION     0.006    0.006     0  04:15      0.0261      0.0261       0.672
  FID1968              JUNCTION     0.002    0.002     0  04:15     0.00785     0.00785       2.271
  FID2239              JUNCTION     0.003    0.003     0  03:30     0.00871     0.00871       3.413
  FID2241              JUNCTION     0.000    0.003     0  03:30           0     0.00804       2.183
  FID2242              JUNCTION     0.003    0.003     0  03:30     0.00822     0.00822       2.233
  FID2244              JUNCTION     0.001    0.001     0  03:30     0.00319     0.00319       5.785
  FID2440              JUNCTION     0.000    0.599     0  04:09           0        13.4       0.154
  FID2442              JUNCTION     0.000    0.000     0  00:00           0           0       0.000 ltr
  FID2446              JUNCTION     0.024    0.024     0  04:05      0.0335      0.0335       2.208
  FID2447              JUNCTION     0.000    0.024     0  04:05           0      0.0328      -0.074
  FID2455              JUNCTION     0.023    0.607     0  04:12      0.0635        13.3       0.146
  FID2711              JUNCTION     0.000    0.007     0  04:05           0      0.0107       1.586
  FID2719              JUNCTION     0.029    0.029     0  04:05      0.0504      0.0504       0.344
  FID2720              JUNCTION     0.007    0.007     0  04:05      0.0109      0.0109       1.906
  FID2824              JUNCTION     0.000    0.001     0  04:10    0.000145     0.00187      10.029
  FID2827              JUNCTION     0.000    0.001     0  03:28    0.000164      0.0019      10.172
  FID2828              JUNCTION     0.001    0.001     0  03:30     0.00194     0.00194      11.607
  FID2832              JUNCTION     0.000    0.032     0  04:10           0       0.126       0.123
  FID2833              JUNCTION     0.032    0.032     0  04:10       0.126       0.126       0.209
  FID2839              JUNCTION     0.304    0.304     0  04:20         1.1         1.1       0.017
  FID2873              JUNCTION     0.004    0.004     0  04:10      0.0165      0.0165       1.082
  FID2964              JUNCTION     0.074    0.074     0  04:20        0.24        0.24       0.093
  FID2965              JUNCTION     0.000    0.952     0  04:27           0        13.5       0.183
  FID4584              JUNCTION     0.000    0.000     0  00:00           0           0       0.000 ltr
  FID5068              JUNCTION     0.002    0.002     0  03:30     0.00392     0.00392       4.653
  FID5072              JUNCTION     0.024    0.633     0  04:20       0.064        13.1       0.137
  FID5140              JUNCTION     0.140    0.140     0  04:20       0.457       0.457       0.039
  FID5435              JUNCTION     0.151    0.151     0  04:20       0.364       0.364       0.051
  FID5437              JUNCTION     0.000    0.000     0  03:30     0.00107     0.00107      19.500
  FID5503              JUNCTION     0.000    0.000     0  03:18    0.000155    0.000155     155.132 ltr
  FID5504              JUNCTION     0.013    0.013     0  04:10      0.0499      0.0499       0.350
  FID5527              JUNCTION     0.003    0.003     0  04:10      0.0103      0.0103       1.684
  FID5568              JUNCTION     0.001    0.633     0  04:21     0.00153        12.9       0.490
  FID5784              JUNCTION     0.000    0.775     0  04:21           0        13.2       0.078
  FID5785              JUNCTION     0.000    0.003     0  03:30           0     0.00843       1.947
  AFID6926             JUNCTION     0.013    0.013     0  04:15      0.0526      0.0526       0.332
  AFID7360             JUNCTION     0.000    0.955     0  04:27    9.36e-05        13.4       0.139
  AFID7363             JUNCTION     0.000    0.954     0  04:27           0        13.4       0.068
  AFID7376             JUNCTION     0.034    0.034     0  04:10       0.137       0.137       0.083
  AFID7377             JUNCTION     0.000    0.904     0  04:26           0        13.3       0.084
  AFID7705             JUNCTION     0.000    0.483     0  04:15           0        13.5       0.203
  AFID7706             JUNCTION     0.000    0.470     0  04:15           0        13.5       0.204
  AFID7792             JUNCTION     0.047    0.047     0  03:30       0.138       0.138       0.125
  AFID8223             JUNCTION     0.000    0.773     0  04:21           0        13.2       0.014
  J1                   JUNCTION     0.655    0.655     0  04:15          21          21       0.111
  FID4901              JUNCTION     0.000    0.442     0  04:15           0        13.7       0.153
  J9                   JUNCTION     0.000    0.662     0  00:00           0          21       0.211
  J11                  JUNCTION     0.000    0.655     0  04:15           0        20.9       0.312
  J12                  JUNCTION     0.001    0.656     0  04:15     0.00481        20.9       0.348
  J13                  JUNCTION    -0.220    0.656     0  04:19       -7.13        20.8      -0.143
  FID4902              JUNCTION     0.000    0.444     0  04:15           0        13.7       0.245
  J14                  JUNCTION     0.062    0.528     0  04:05       0.101        13.5       0.132
  J15                  JUNCTION     0.079    0.590     0  04:05       0.141        13.5       0.112
  J16                  JUNCTION     0.001    0.588     0  04:05     0.00197        13.5       0.117
  FID2449              JUNCTION     0.000    0.577     0  04:08    0.000283        13.3       0.908
  J17                  JUNCTION     0.035    0.622     0  04:12       0.094        13.4       0.064
  J19                  JUNCTION     0.003    0.622     0  04:15     0.00818        13.2       0.807
  FID5069              JUNCTION     0.000    0.634     0  04:20           0        13.1       0.132
  FID5139              JUNCTION     0.000    0.765     0  04:20           0        13.3       0.034
  J24                  JUNCTION     0.004    0.640     0  04:23      0.0093        12.8       0.058
  FID4984              JUNCTION     0.000    0.776     0  04:21           0        13.2       0.609
  FID2669              JUNCTION     0.000    1.210     0  04:26           0        14.3       0.050
  FID2712              JUNCTION     0.000    1.202     0  04:25           0        14.3       0.063
  FID2718              JUNCTION     0.000    1.201     0  04:24           0        14.3       0.046
  FID2838              JUNCTION     0.000    1.180     0  04:20           0        14.4       0.154
  FID2825              JUNCTION     0.000    0.968     0  04:25           0        13.3       0.273
  FID2823              JUNCTION     0.000    0.965     0  04:26           0        13.4       0.412
  FID5505              JUNCTION     0.000    0.962     0  04:26           0        13.4       0.099
  FID5436              JUNCTION     0.000    0.901     0  04:20           0        13.5       0.579
  FID5438              JUNCTION     0.000    0.775     0  04:24           0        13.1       0.108
  J49                  JUNCTION     0.000    0.444     0  04:15           0        13.7       0.380
  J50                  JUNCTION     0.000    0.444     0  04:18    5.78e-05        13.6       0.705
  J51                  JUNCTION     0.000    0.446     0  04:19           0        13.5       0.604
  J52                  JUNCTION     0.000    0.447     0  04:19           0        13.4       0.184
  J53                  JUNCTION     0.000    0.483     0  04:15           0        13.4       0.129
  J54                  JUNCTION     0.000    0.483     0  04:15           0        13.4       0.191
  J55                  JUNCTION     0.000    0.482     0  04:15           0        13.5       0.201
  J56                  JUNCTION     0.000    0.482     0  04:15           0        13.5       0.208
  J57                  JUNCTION     0.000    0.482     0  04:15           0        13.5       0.248
  J58                  JUNCTION     0.000    0.483     0  04:16     0.00141        13.4       0.265
  FID1935              JUNCTION     0.000    0.557     0  04:05           0        13.5       0.175
  J59                  JUNCTION     0.000    0.554     0  04:05           0        13.5       0.222
  J60                  JUNCTION     0.001    0.550     0  04:05     0.00198        13.4       0.354
  J61                  JUNCTION     0.000    0.544     0  04:06           0        13.4       0.238
  J62                  JUNCTION     0.000    0.542     0  04:07           0        13.4       0.104
  J63                  JUNCTION     0.000    0.542     0  04:07           0        13.3       0.105
  J64                  JUNCTION     0.000    0.586     0  04:05           0        13.4       0.117
  J65                  JUNCTION     0.004    0.589     0  04:05     0.00632        13.4       0.638
  J66                  JUNCTION     0.000    0.598     0  04:10           0        13.4       0.199
  J67                  JUNCTION     0.000    0.598     0  04:10           0        13.3       0.300
  J68                  JUNCTION     0.002    0.598     0  04:11     0.00517        13.3       0.347
  J69                  JUNCTION     0.000    0.622     0  04:12           0        13.4       0.328
  J70                  JUNCTION     0.001    0.621     0  04:13     0.00261        13.3       0.425
  J71                  JUNCTION     0.000    0.621     0  04:14           0        13.3       0.317
  J72                  JUNCTION     0.003    0.621     0  04:17     0.00703        13.1       1.022
  J73                  JUNCTION     0.000    0.634     0  04:20           0          13       0.272
  J74                  JUNCTION     0.000    0.633     0  04:20           0          13       0.394
  J75                  JUNCTION     0.001    0.633     0  04:21     0.00271          13       0.621
  J76                  JUNCTION     0.000    0.765     0  04:20           0        13.3       0.154
  J77                  JUNCTION     0.020    0.776     0  04:20      0.0596        13.3       0.284
  J78                  JUNCTION     0.000    0.774     0  04:21           0        13.3       0.211
  J79                  JUNCTION     0.000    0.774     0  04:21           0        13.2       0.076
  J80                  JUNCTION     0.003    0.774     0  04:23     0.00688        13.2       0.440
  J81                  JUNCTION     0.000    0.893     0  04:21      0.0012        13.4       0.942
  J82                  JUNCTION     0.000    0.888     0  04:24           0        13.3       0.388
  J83                  JUNCTION     0.000    0.888     0  04:25           0        13.2       0.217
  J84                  JUNCTION     0.000    0.904     0  04:26           0        13.3       0.141
  J85                  JUNCTION     0.000    0.904     0  04:26           0        13.3       0.260
  J86                  JUNCTION     0.000    0.904     0  04:27           0        13.3       0.262
  J87                  JUNCTION     0.000    0.954     0  04:27     0.00185        13.4       0.097
  J88                  JUNCTION     0.000    0.956     0  04:26           0        13.4       0.170
  J89                  JUNCTION     0.000    0.963     0  04:26           0        13.4       0.285
  J90                  JUNCTION     0.000    1.177     0  04:22           0        14.4       0.085
  J91                  JUNCTION     0.000    1.177     0  04:22           0        14.3       0.123
  J92                  JUNCTION     0.000    1.176     0  04:22    7.19e-07        14.3       0.152
  J93                  JUNCTION     0.000    1.178     0  04:23           0        14.3       0.081
  J94                  JUNCTION     0.000    1.178     0  04:23    1.33e-06        14.3       0.094
  J95                  JUNCTION     0.000    1.178     0  04:23           0        14.3       0.036
  J96                  JUNCTION     0.000    1.196     0  04:23           0        14.4       0.135
  J97                  JUNCTION     0.000    1.195     0  04:23           0        14.4       0.116
  J98                  JUNCTION     0.000    1.195     0  04:24           0        14.3       0.103
  J99                  JUNCTION     0.000    1.195     0  04:24           0        14.3       0.088
  J100                 JUNCTION     0.000    1.195     0  04:24           0        14.3       0.075
  J101                 JUNCTION     0.000    1.195     0  04:24           0        14.3       0.085
  J102                 JUNCTION     0.000    1.195     0  04:25           0        14.3       0.064
  J103                 JUNCTION     0.000    1.201     0  04:25           0        14.3       0.050
  J104                 JUNCTION     0.000    1.202     0  04:25           0        14.3       0.067
  J105                 JUNCTION     0.000    1.202     0  04:25           0        14.3       0.084
  J106                 JUNCTION     0.000    1.202     0  04:25           0        14.3       0.095
  J107                 JUNCTION     0.000    1.202     0  04:25           0        14.3       0.092
  J108                 JUNCTION     0.000    1.202     0  04:26    4.77e-06        14.3       0.083
  J109                 JUNCTION     0.000    1.202     0  04:26           0        14.3       0.070
  J110                 JUNCTION     0.000    1.202     0  04:26           0        14.3       0.068
  J111                 JUNCTION     0.000    1.202     0  04:26    4.29e-05        14.2       0.049
  J112                 JUNCTION     0.000    1.210     0  04:26           0        14.3       0.071
  J113                 JUNCTION     0.000    1.210     0  04:27           0        14.3       0.069
  J114                 JUNCTION     0.000    1.210     0  04:27           0        14.3       0.058
  J115                 JUNCTION     0.000    1.210     0  04:27           0        14.3       0.043
  J116                 JUNCTION     0.000    1.210     0  04:27    1.29e-06        14.3       0.057
  J117                 JUNCTION     0.000    1.210     0  04:26           0        14.2       0.070
  J118                 JUNCTION     0.000    1.210     0  04:27           0        14.2       0.059
  J119                 JUNCTION     0.000    1.210     0  04:27           0        14.2       0.056
  J120                 JUNCTION     0.000    1.211     0  04:27           0        14.2       0.070
  FID2451              JUNCTION     0.000    0.574     0  04:09           0        13.3       0.152
  J121                 JUNCTION     0.001    0.888     0  04:25     0.00364        13.2       0.075
  J122                 JUNCTION     0.000    0.888     0  04:25    0.000165        13.2       0.074
  FID3706              JUNCTION     0.000    1.179     0  04:23           0        14.3       0.123
  FID2831              JUNCTION     0.000    1.196     0  04:23           0        14.4       0.081
  FID2689              OUTFALL      0.000    1.211     0  04:27           0        14.2       0.000
  
  
  **********************
  Node Surcharge Summary
  **********************
  
  No nodes were surcharged.
  
  
  *********************
  Node Flooding Summary
  *********************
  
  No nodes were flooded.
  
  
  ***********************
  Outfall Loading Summary
  ***********************
  
  -----------------------------------------------------------------------------------------------------
                         Flow       Avg       Max       Total         Total         Total         Total
                         Freq      Flow      Flow      Volume           TSS            TP           TDP
  Outfall Node           Pcnt       CMS       CMS    10^6 ltr            kg            kg            kg
  -----------------------------------------------------------------------------------------------------
  FID2689               86.08     0.587     1.211      14.206      8597.859         3.800         5.700
  -----------------------------------------------------------------------------------------------------
  System                86.08     0.587     1.211      14.206      8597.859         3.800         5.700
  
  
  ********************
  Link Flow Summary
  ********************
  
  -----------------------------------------------------------------------------
                                 Maximum  Time of Max   Maximum    Max/    Max/
                                  |Flow|   Occurrence   |Veloc|    Full    Full
  Link                 Type          CMS  days hr:min     m/sec    Flow   Depth
  -----------------------------------------------------------------------------
  FID1123              CONDUIT     0.004     0  04:10      0.51    0.07    0.17
  FID1139              CONDUIT     0.028     0  04:05      0.98    0.20    0.30
  FID1148              CONDUIT     0.032     0  04:10      0.58    0.08    0.14
  FID1149              CONDUIT     0.032     0  04:10      1.49    0.01    0.07
  FID3364              CONDUIT     0.034     0  04:10      0.76    0.03    0.15
  FID3671              CONDUIT     0.002     0  04:15      0.68    0.01    0.08
  FID3672              CONDUIT     0.006     0  04:15      0.98    0.04    0.14
  FID3762              CONDUIT     0.013     0  04:15      1.43    0.04    0.13
  FID3765              CONDUIT     0.028     0  04:15      1.90    0.07    0.19
  FID4112              CONDUIT     0.033     0  04:05      1.09    0.06    0.16
  FID4186              CONDUIT     0.003     0  03:30      0.65    0.01    0.08
  FID4187              CONDUIT     0.003     0  03:30      1.02    0.01    0.06
  FID4201              CONDUIT     0.024     0  04:05      0.79    0.23    0.31
  FID4202              CONDUIT     0.023     0  04:05      0.92    0.16    0.27
  FID4203              CONDUIT     0.000     0  00:00      0.00    0.00    0.14
  FID4299              CONDUIT     0.002     0  03:30      0.62    0.01    0.06
  FID4372              CONDUIT     0.140     0  04:20      1.47    0.04    0.16
  FID4498              CONDUIT     0.074     0  04:20      1.47    0.19    0.35
  FID4806              CONDUIT     0.151     0  04:20      2.38    0.05    0.15
  FID4807              CONDUIT     0.000     0  03:30      0.47    0.00    0.04
  FID4882              CONDUIT     0.000     0  00:00      0.00    0.00    0.11
  FID4884              CONDUIT     0.013     0  04:10      1.15    0.00    0.05
  FID4914              CONDUIT     0.003     0  04:10      0.09    0.01    0.40
  FID4915              CONDUIT     0.001     0  03:28      0.14    0.02    0.09
  FID4916              CONDUIT     0.001     0  04:10      0.16    0.01    0.07
  FID4917              CONDUIT     0.001     0  04:10      0.53    0.00    0.03
  FID5307              CONDUIT     0.003     0  03:30      0.30    0.06    0.15
  FID5308              CONDUIT     0.001     0  03:30      0.75    0.01    0.06
  FID5312              CONDUIT     0.003     0  03:31      0.41    0.02    0.09
  FID5865              CONDUIT     0.304     0  04:20      3.75    0.12    0.23
  C9                   CHANNEL     0.662     0  00:00      0.87    0.03    0.36
  C12                  CHANNEL     0.655     0  04:16      0.75    0.13    0.34
  C13                  CHANNEL     0.656     0  04:19      1.29    0.13    0.34
  C14                  CHANNEL     0.437     0  04:19      1.09    0.09    0.34
  C52                  CONDUIT     0.047     0  03:30      1.32    0.07    0.18
  C130                 CONDUIT     0.007     0  04:05      0.34    0.12    0.18
  C131                 CONDUIT     0.007     0  04:05      1.05    0.01    0.08
  C139                 CONDUIT     0.000     0  00:00      0.00    0.00    0.14
  C191                 CHANNEL     0.444     0  04:15      0.93    0.09    0.38
  C193                 CHANNEL     0.446     0  04:19      0.59    0.09    0.48
  C194                 CHANNEL     0.447     0  04:19      0.43    0.09    0.53
  C195                 CHANNEL     0.448     0  04:19      0.50    0.04    0.42
  C196                 CONDUIT     0.442     0  04:15      0.52    0.15    0.39
  C197                 CONDUIT     0.470     0  04:16      0.34    0.10    0.56
  C198                 CHANNEL     0.482     0  04:15      0.37    0.04    0.32
  C199                 CHANNEL     0.482     0  04:15      0.45    0.96    0.35
  C200                 CHANNEL     0.482     0  04:15      0.50    0.87    0.32
  C201                 CHANNEL     0.482     0  04:16      0.52    0.06    0.26
  C202                 CHANNEL     0.483     0  04:15      0.53    0.06    0.26
  C203                 CHANNEL     0.483     0  04:15      0.54    0.06    0.26
  C204                 CHANNEL     0.485     0  04:09      1.03    0.07    0.26
  C205                 CONDUIT     0.524     0  04:05      0.43    0.16    0.32
  C206                 CHANNEL     0.554     0  04:05      0.88    0.07    0.27
  C207                 CHANNEL     0.550     0  04:05      0.56    0.07    0.27
  C208                 CHANNEL     0.544     0  04:06      0.58    0.07    0.26
  C209                 CHANNEL     0.542     0  04:07      0.63    0.07    0.24
  C210                 CHANNEL     0.542     0  04:07      0.77    0.08    0.28
  C211                 CHANNEL     0.543     0  04:07      0.93    0.09    0.25
  C212                 CONDUIT     0.586     0  04:05      0.49    0.15    0.30
  C213                 CHANNEL     0.586     0  04:05      0.84    0.10    0.25
  C214                 CHANNEL     0.586     0  04:05      1.32    0.10    0.22
  C215                 CONDUIT     0.577     0  04:08      0.54    0.15    0.28
  C216                 CONDUIT     0.571     0  04:10      0.68    0.19    0.25
  C217                 CONDUIT     0.573     0  04:10      0.60    0.10    0.19
  C218                 CHANNEL     0.598     0  04:10      0.76    0.10    0.27
  C219                 CHANNEL     0.598     0  04:10      0.74    0.10    0.27
  C220                 CHANNEL     0.597     0  04:11      0.67    0.10    0.27
  C221                 CHANNEL     0.597     0  04:12      0.84    0.10    0.23
  C222                 CONDUIT     0.607     0  04:12      0.85    0.19    0.20
  C223                 CHANNEL     0.622     0  04:12      1.01    0.04    0.23
  C224                 CHANNEL     0.621     0  04:13      0.73    0.18    0.41
  C225                 CHANNEL     0.621     0  04:14      0.71    0.18    0.40
  C226                 CHANNEL     0.620     0  04:15      1.47    0.18    0.34
  C227                 CONDUIT     0.620     0  04:16      0.52    0.23    0.35
  C228                 CHANNEL     0.619     0  04:18      0.99    0.11    0.30
  C229                 CONDUIT     0.633     0  04:20      0.37    0.05    0.22
  C230                 CHANNEL     0.634     0  04:20      0.93    0.12    0.32
  C231                 CHANNEL     0.633     0  04:20      0.93    0.12    0.32
  C232                 CHANNEL     0.633     0  04:21      1.01    0.12    0.32
  C233                 CHANNEL     0.633     0  04:21      0.94    0.12    0.32
  C234                 CONDUIT     0.639     0  04:23      0.61    0.12    0.25
  C235                 CHANNEL     0.641     0  04:23      0.94    0.12    0.33
  C236                 CHANNEL     0.765     0  04:20      0.94    0.17    0.37
  C237                 CHANNEL     0.764     0  04:20      0.94    0.17    0.37
  C238                 CHANNEL     0.774     0  04:21      0.95    0.17    0.37
  C239                 CHANNEL     0.774     0  04:21      0.96    0.17    0.37
  C240                 CHANNEL     0.773     0  04:21      1.06    0.16    0.37
  C241                 CHANNEL     0.773     0  04:21      1.49    0.17    0.37
  C242                 CONDUIT     0.774     0  04:21      0.92    0.12    0.31
  C243                 CHANNEL     0.773     0  04:23      1.01    0.17    0.36
  C244                 CHANNEL     0.775     0  04:24      1.15    0.06    0.20
  C245                 CONDUIT     0.776     0  04:24      0.65    0.10    0.30
  C246                 CHANNEL     0.892     0  04:22      1.12    0.13    0.38
  C247                 CHANNEL     0.888     0  04:24      0.85    0.13    0.38
  C248                 CHANNEL     0.888     0  04:25      0.93    0.13    0.34
  C249                 CHANNEL     0.888     0  04:25      1.09    0.16    0.31
  C250                 CONDUIT     0.888     0  04:25      0.89    0.15    0.25
  C251                 CONDUIT     0.888     0  04:26      0.86    0.15    0.26
  C252                 CHANNEL     0.904     0  04:26      7.98    0.17    0.30
  C253                 CHANNEL     0.904     0  04:26      1.26    0.09    0.29
  C254                 CHANNEL     0.904     0  04:27      1.53    0.09    0.29
  C255                 CHANNEL     0.904     0  04:27      2.62    0.09    0.31
  C256                 CHANNEL     0.954     0  04:27      5.24    0.10    0.34
  C257                 CHANNEL     0.954     0  04:27      4.79    0.10    0.36
  C258                 CONDUIT     0.955     0  04:27      0.75    0.16    0.31
  C259                 CHANNEL     0.956     0  04:26      3.14    0.10    0.43
  C260                 CHANNEL     0.957     0  04:26      0.72    0.10    0.47
  C261                 CHANNEL     0.963     0  04:26      1.43    0.10    0.49
  C262                 CHANNEL     0.965     0  04:26      1.02    0.10    0.56
  C263                 CHANNEL     0.968     0  04:25      0.77    0.10    0.39
  C264                 CONDUIT     0.970     0  04:25      0.57    0.23    0.41
  C265                 CHANNEL     1.177     0  04:22      0.96    0.12    0.33
  C266                 CHANNEL     1.177     0  04:22      1.10    0.10    0.35
  C267                 CHANNEL     1.176     0  04:22      1.22    0.10    0.35
  C268                 CHANNEL     1.176     0  04:23      1.09    0.10    0.35
  C269                 CHANNEL     1.178     0  04:23      1.10    0.11    0.35
  C270                 CHANNEL     1.178     0  04:23      1.09    0.11    0.35
  C271                 CHANNEL     1.178     0  04:23      1.09    0.11    0.35
  C272                 CHANNEL     1.178     0  04:23      1.26    0.11    0.35
  C273                 CHANNEL     1.196     0  04:23      1.11    0.11    0.35
  C274                 CHANNEL     1.195     0  04:23      1.12    0.11    0.35
  C275                 CHANNEL     1.195     0  04:24      1.14    0.11    0.35
  C276                 CHANNEL     1.195     0  04:24      1.16    0.11    0.34
  C277                 CHANNEL     1.195     0  04:24      1.21    0.11    0.33
  C278                 CHANNEL     1.195     0  04:24      1.28    0.11    0.32
  C279                 CHANNEL     1.195     0  04:25      1.50    0.11    0.28
  C280                 CHANNEL     1.195     0  04:25      1.05    0.18    0.37
  C281                 CHANNEL     1.201     0  04:25      1.06    0.19    0.37
  C282                 CHANNEL     1.201     0  04:25      1.06    0.19    0.37
  C283                 CHANNEL     1.202     0  04:25      1.07    0.19    0.37
  C284                 CHANNEL     1.202     0  04:25      1.08    0.19    0.37
  C285                 CHANNEL     1.202     0  04:25      1.10    0.19    0.36
  C286                 CHANNEL     1.202     0  04:25      1.41    0.13    0.35
  C287                 CHANNEL     1.202     0  04:26      1.41    0.13    0.35
  C288                 CHANNEL     1.202     0  04:26      1.41    0.13    0.35
  C289                 CHANNEL     1.202     0  04:26      1.41    0.13    0.35
  C290                 CHANNEL     1.202     0  04:26      1.41    0.13    0.35
  C291                 CHANNEL     1.202     0  04:26      1.41    0.13    0.36
  C292                 CHANNEL     1.210     0  04:26      1.41    0.13    0.36
  C293                 CHANNEL     1.210     0  04:27      1.41    0.13    0.36
  C294                 CHANNEL     1.210     0  04:27      1.41    0.13    0.36
  C295                 CHANNEL     1.210     0  04:27      1.41    0.13    0.36
  C296                 CHANNEL     1.210     0  04:27      1.41    0.13    0.36
  C297                 CHANNEL     1.210     0  04:26      1.41    0.13    0.36
  C298                 CHANNEL     1.210     0  04:27      1.40    0.13    0.36
  C299                 CHANNEL     1.210     0  04:27      1.37    0.13    0.36
  C300                 CHANNEL     1.211     0  04:27      1.27    0.13    0.39
  C301                 CHANNEL     1.211     0  04:27      1.56    0.10    0.30
  C302                 CHANNEL     0.655     0  04:15      0.77    0.05    0.29
  C303                 CHANNEL     0.444     0  04:18      0.71    0.09    0.42
  C353                 CONDUIT     0.013     0  04:15      1.11    0.00    0.05
  
  
  ***************************
  Flow Classification Summary
  ***************************
  
  -------------------------------------------------------------------------------------
                      Adjusted    ---------- Fraction of Time in Flow Class ---------- 
                       /Actual         Up    Down  Sub   Sup   Up    Down  Norm  Inlet 
  Conduit               Length    Dry  Dry   Dry   Crit  Crit  Crit  Crit  Ltd   Ctrl  
  -------------------------------------------------------------------------------------
  FID1123                 1.00   0.21  0.00  0.00  0.00  0.00  0.00  0.79  0.00  0.00
  FID1139                 1.00   0.22  0.00  0.00  0.00  0.00  0.00  0.78  0.00  0.00
  FID1148                 1.00   0.20  0.00  0.00  0.53  0.00  0.00  0.27  0.00  0.00
  FID1149                 1.00   0.21  0.00  0.00  0.00  0.00  0.00  0.79  0.00  0.00
  FID3364                 1.00   0.08  0.12  0.00  0.80  0.00  0.00  0.00  0.71  0.00
  FID3671                 1.00   0.24  0.00  0.00  0.00  0.00  0.00  0.76  0.00  0.00
  FID3672                 1.00   0.23  0.00  0.00  0.00  0.00  0.00  0.77  0.00  0.00
  FID3762                 1.00   0.03  0.20  0.00  0.36  0.10  0.00  0.31  0.36  0.00
  FID3765                 1.00   0.02  0.21  0.00  0.44  0.06  0.00  0.27  0.46  0.00
  FID4112                 1.00   0.22  0.00  0.00  0.00  0.00  0.00  0.78  0.00  0.00
  FID4186                 1.00   0.26  0.00  0.00  0.44  0.08  0.00  0.22  0.17  0.00
  FID4187                 1.00   0.28  0.00  0.00  0.00  0.00  0.00  0.72  0.00  0.00
  FID4201                 1.00   0.22  0.00  0.00  0.69  0.00  0.00  0.08  0.47  0.00
  FID4202                 1.00   0.23  0.00  0.00  0.00  0.00  0.00  0.77  0.00  0.00
  FID4203                 1.00   0.23  0.77  0.00  0.00  0.00  0.00  0.00  0.00  0.00
  FID4299                 1.00   0.28  0.00  0.00  0.00  0.00  0.00  0.72  0.00  0.00
  FID4372                 1.00   0.04  0.19  0.00  0.64  0.13  0.00  0.00  0.68  0.00
  FID4498                 1.00   0.09  0.12  0.00  0.63  0.15  0.00  0.02  0.69  0.00
  FID4806                 1.00   0.23  0.00  0.00  0.00  0.00  0.00  0.77  0.00  0.00
  FID4807                 1.00   0.29  0.00  0.00  0.00  0.00  0.00  0.71  0.00  0.00
  FID4882                 1.00   0.91  0.09  0.00  0.00  0.00  0.00  0.00  0.00  0.00
  FID4884                 1.00   0.20  0.00  0.00  0.00  0.00  0.00  0.80  0.00  0.00
  FID4914                 1.00   0.07  0.15  0.00  0.78  0.00  0.00  0.00  0.69  0.00
  FID4915                 1.00   0.28  0.00  0.00  0.70  0.00  0.00  0.02  0.61  0.00
  FID4916                 1.00   0.30  0.00  0.00  0.57  0.00  0.00  0.14  0.20  0.00
  FID4917                 1.00   0.31  0.00  0.00  0.00  0.00  0.00  0.69  0.00  0.00
  FID5307                 1.00   0.24  0.00  0.00  0.71  0.00  0.00  0.05  0.49  0.00
  FID5308                 1.00   0.28  0.00  0.00  0.00  0.00  0.00  0.72  0.00  0.00
  FID5312                 1.00   0.28  0.00  0.00  0.00  0.00  0.00  0.72  0.00  0.00
  FID5865                 1.00   0.20  0.00  0.00  0.00  0.00  0.00  0.80  0.00  0.00
  C9                      1.00   0.00  0.00  0.00  1.00  0.00  0.00  0.00  0.00  0.00
  C12                     1.00   0.00  0.00  0.00  1.00  0.00  0.00  0.00  0.00  0.00
  C13                     1.00   0.00  0.00  0.00  1.00  0.00  0.00  0.00  0.00  0.00
  C14                     1.00   0.00  0.00  0.00  1.00  0.00  0.00  0.00  0.00  0.00
  C52                     1.00   0.02  0.21  0.00  0.63  0.12  0.00  0.01  0.67  0.00
  C130                    1.00   0.23  0.00  0.00  0.54  0.00  0.00  0.23  0.00  0.00
  C131                    1.00   0.26  0.00  0.00  0.00  0.00  0.00  0.74  0.00  0.00
  C139                    1.00   0.20  0.80  0.00  0.00  0.00  0.00  0.00  0.00  0.00
  C191                    1.00   0.00  0.00  0.00  1.00  0.00  0.00  0.00  0.00  0.00
  C193                    1.00   0.00  0.00  0.00  1.00  0.00  0.00  0.00  0.00  0.00
  C194                    1.00   0.00  0.00  0.00  1.00  0.00  0.00  0.00  0.00  0.00
  C195                    1.00   0.00  0.00  0.00  1.00  0.00  0.00  0.00  0.00  0.00
  C196                    1.00   0.00  0.00  0.00  1.00  0.00  0.00  0.00  0.00  0.00
  C197                    1.00   0.00  0.00  0.00  0.99  0.00  0.00  0.00  0.00  0.00
  C198                    1.00   0.01  0.00  0.00  0.99  0.00  0.00  0.00  0.00  0.00
  C199                    1.00   0.01  0.00  0.00  0.99  0.00  0.00  0.00  0.00  0.00
  C200                    1.00   0.01  0.00  0.00  0.99  0.00  0.00  0.00  0.00  0.00
  C201                    1.00   0.01  0.00  0.00  0.99  0.00  0.00  0.00  0.00  0.00
  C202                    1.00   0.01  0.00  0.00  0.99  0.00  0.00  0.00  0.00  0.00
  C203                    1.00   0.01  0.00  0.00  0.99  0.00  0.00  0.00  0.00  0.00
  C204                    1.00   0.01  0.00  0.00  0.99  0.00  0.00  0.00  0.00  0.00
  C205                    1.00   0.01  0.00  0.00  0.99  0.00  0.00  0.00  0.00  0.00
  C206                    1.00   0.01  0.00  0.00  0.99  0.00  0.00  0.00  0.00  0.00
  C207                    1.00   0.01  0.00  0.00  0.99  0.00  0.00  0.00  0.00  0.00
  C208                    1.00   0.01  0.00  0.00  0.99  0.00  0.00  0.00  0.00  0.00
  C209                    1.00   0.01  0.00  0.00  0.99  0.00  0.00  0.00  0.00  0.00
  C210                    1.00   0.01  0.00  0.00  0.99  0.00  0.00  0.00  0.00  0.00
  C211                    1.00   0.01  0.00  0.00  0.98  0.00  0.00  0.00  0.00  0.00
  C212                    1.00   0.02  0.00  0.00  0.98  0.00  0.00  0.00  0.00  0.00
  C213                    1.00   0.02  0.00  0.00  0.98  0.00  0.00  0.00  0.00  0.00
  C214                    1.00   0.02  0.00  0.00  0.98  0.00  0.00  0.00  0.00  0.00
  C215                    1.00   0.02  0.00  0.00  0.98  0.00  0.00  0.00  0.92  0.00
  C216                    1.00   0.02  0.00  0.00  0.98  0.00  0.00  0.00  0.00  0.00
  C217                    1.00   0.02  0.00  0.00  0.98  0.00  0.00  0.00  0.00  0.00
  C218                    1.00   0.02  0.00  0.00  0.98  0.00  0.00  0.00  0.01  0.00
  C219                    1.00   0.02  0.00  0.00  0.98  0.00  0.00  0.00  0.01  0.00
  C220                    1.00   0.02  0.00  0.00  0.98  0.00  0.00  0.00  0.01  0.00
  C221                    1.00   0.02  0.00  0.00  0.98  0.00  0.00  0.00  0.00  0.00
  C222                    1.00   0.02  0.00  0.00  0.98  0.00  0.00  0.00  0.00  0.00
  C223                    1.00   0.03  0.00  0.00  0.97  0.00  0.00  0.00  0.91  0.00
  C224                    1.00   0.03  0.00  0.00  0.97  0.00  0.00  0.00  0.00  0.00
  C225                    1.00   0.03  0.00  0.00  0.97  0.00  0.00  0.00  0.00  0.00
  C226                    1.00   0.03  0.00  0.00  0.97  0.00  0.00  0.00  0.00  0.00
  C227                    1.00   0.03  0.00  0.00  0.97  0.00  0.00  0.00  0.87  0.00
  C228                    1.00   0.03  0.00  0.00  0.97  0.00  0.00  0.00  0.00  0.00
  C229                    1.00   0.03  0.00  0.00  0.97  0.00  0.00  0.00  0.00  0.00
  C230                    1.00   0.03  0.00  0.00  0.97  0.00  0.00  0.00  0.00  0.00
  C231                    1.00   0.03  0.00  0.00  0.97  0.00  0.00  0.00  0.47  0.00
  C232                    1.00   0.03  0.00  0.00  0.96  0.00  0.00  0.00  0.72  0.00
  C233                    1.00   0.04  0.00  0.00  0.96  0.00  0.00  0.00  0.00  0.00
  C234                    1.00   0.04  0.00  0.00  0.96  0.00  0.00  0.00  0.00  0.00
  C235                    1.00   0.04  0.00  0.00  0.96  0.00  0.00  0.00  0.00  0.00
  C236                    1.00   0.04  0.00  0.00  0.96  0.00  0.00  0.00  0.01  0.00
  C237                    1.00   0.04  0.00  0.00  0.96  0.00  0.00  0.00  0.69  0.00
  C238                    1.00   0.04  0.00  0.00  0.96  0.00  0.00  0.00  0.07  0.00
  C239                    1.00   0.04  0.00  0.00  0.96  0.00  0.00  0.00  0.00  0.00
  C240                    1.00   0.04  0.00  0.00  0.96  0.00  0.00  0.00  0.00  0.00
  C241                    1.00   0.04  0.00  0.00  0.95  0.00  0.00  0.00  0.00  0.00
  C242                    1.00   0.04  0.00  0.00  0.96  0.00  0.00  0.00  0.00  0.00
  C243                    1.00   0.04  0.00  0.00  0.96  0.00  0.00  0.00  0.00  0.00
  C244                    1.00   0.04  0.00  0.00  0.94  0.01  0.00  0.00  0.00  0.00
  C245                    1.00   0.05  0.00  0.00  0.95  0.00  0.00  0.00  0.00  0.00
  C246                    1.00   0.05  0.00  0.00  0.95  0.00  0.00  0.00  0.76  0.00
  C247                    1.00   0.05  0.00  0.00  0.94  0.01  0.00  0.00  0.00  0.00
  C248                    1.00   0.06  0.00  0.00  0.93  0.01  0.00  0.00  0.00  0.00
  C249                    1.00   0.07  0.00  0.00  0.93  0.00  0.00  0.00  0.00  0.00
  C250                    1.00   0.07  0.00  0.00  0.93  0.00  0.00  0.00  0.00  0.00
  C251                    1.00   0.07  0.00  0.00  0.93  0.00  0.00  0.00  0.00  0.00
  C252                    1.00   0.07  0.00  0.00  0.92  0.00  0.00  0.00  0.00  0.00
  C253                    1.00   0.08  0.00  0.00  0.92  0.00  0.00  0.00  0.52  0.00
  C254                    1.00   0.08  0.00  0.00  0.92  0.00  0.00  0.00  0.52  0.00
  C255                    1.00   0.08  0.00  0.00  0.92  0.00  0.00  0.00  0.66  0.00
  C256                    1.00   0.08  0.00  0.00  0.91  0.00  0.00  0.00  0.00  0.00
  C257                    1.00   0.09  0.00  0.00  0.91  0.00  0.00  0.00  0.00  0.00
  C258                    1.00   0.09  0.00  0.00  0.91  0.00  0.00  0.00  0.00  0.00
  C259                    1.00   0.09  0.00  0.00  0.91  0.00  0.00  0.00  0.00  0.00
  C260                    1.00   0.09  0.00  0.00  0.91  0.00  0.00  0.00  0.00  0.00
  C261                    1.00   0.09  0.00  0.00  0.90  0.00  0.00  0.00  0.00  0.00
  C262                    1.00   0.09  0.00  0.00  0.90  0.00  0.00  0.00  0.00  0.00
  C263                    1.00   0.10  0.00  0.00  0.90  0.00  0.00  0.00  0.00  0.00
  C264                    1.00   0.10  0.00  0.00  0.90  0.00  0.00  0.00  0.00  0.00
  C265                    1.00   0.10  0.00  0.00  0.90  0.00  0.00  0.00  0.00  0.00
  C266                    1.00   0.10  0.00  0.00  0.90  0.00  0.00  0.00  0.01  0.00
  C267                    1.00   0.11  0.00  0.00  0.89  0.00  0.00  0.00  0.00  0.00
  C268                    1.00   0.11  0.00  0.00  0.89  0.00  0.00  0.00  0.16  0.00
  C269                    1.00   0.11  0.00  0.00  0.89  0.00  0.00  0.00  0.01  0.00
  C270                    1.00   0.11  0.00  0.00  0.89  0.00  0.00  0.00  0.02  0.00
  C271                    1.00   0.11  0.00  0.00  0.89  0.00  0.00  0.00  0.01  0.00
  C272                    1.00   0.11  0.00  0.00  0.89  0.00  0.00  0.00  0.00  0.00
  C273                    1.00   0.11  0.00  0.00  0.89  0.00  0.00  0.00  0.10  0.00
  C274                    1.00   0.11  0.00  0.00  0.89  0.00  0.00  0.00  0.00  0.00
  C275                    1.00   0.12  0.00  0.00  0.88  0.00  0.00  0.00  0.00  0.00
  C276                    1.00   0.12  0.00  0.00  0.88  0.00  0.00  0.00  0.00  0.00
  C277                    1.00   0.12  0.00  0.00  0.88  0.00  0.00  0.00  0.00  0.00
  C278                    1.00   0.12  0.00  0.00  0.88  0.00  0.00  0.00  0.00  0.00
  C279                    1.00   0.12  0.00  0.00  0.88  0.00  0.00  0.00  0.00  0.00
  C280                    1.00   0.12  0.00  0.00  0.88  0.00  0.00  0.00  0.03  0.00
  C281                    1.00   0.12  0.00  0.00  0.88  0.00  0.00  0.00  0.03  0.00
  C282                    1.00   0.12  0.00  0.00  0.88  0.00  0.00  0.00  0.01  0.00
  C283                    1.00   0.12  0.00  0.00  0.88  0.00  0.00  0.00  0.00  0.00
  C284                    1.00   0.12  0.00  0.00  0.87  0.00  0.00  0.00  0.00  0.00
  C285                    1.00   0.13  0.00  0.00  0.87  0.00  0.00  0.00  0.00  0.00
  C286                    1.00   0.13  0.00  0.00  0.87  0.00  0.00  0.00  0.47  0.00
  C287                    1.00   0.13  0.00  0.00  0.87  0.00  0.00  0.00  0.47  0.00
  C288                    1.00   0.13  0.00  0.00  0.87  0.00  0.00  0.00  0.47  0.00
  C289                    1.00   0.13  0.00  0.00  0.87  0.00  0.00  0.00  0.46  0.00
  C290                    1.00   0.13  0.00  0.00  0.87  0.00  0.00  0.00  0.45  0.00
  C291                    1.00   0.13  0.00  0.00  0.87  0.00  0.00  0.00  0.00  0.00
  C292                    1.00   0.13  0.00  0.00  0.87  0.00  0.00  0.00  0.47  0.00
  C293                    1.00   0.13  0.00  0.00  0.87  0.00  0.00  0.00  0.47  0.00
  C294                    1.00   0.13  0.00  0.00  0.87  0.00  0.00  0.00  0.47  0.00
  C295                    1.00   0.13  0.00  0.00  0.86  0.00  0.00  0.00  0.39  0.00
  C296                    1.00   0.13  0.00  0.00  0.86  0.00  0.00  0.00  0.39  0.00
  C297                    1.00   0.14  0.00  0.00  0.86  0.00  0.00  0.00  0.33  0.00
  C298                    1.00   0.14  0.00  0.00  0.86  0.00  0.00  0.00  0.12  0.00
  C299                    1.00   0.14  0.00  0.00  0.86  0.00  0.00  0.00  0.00  0.00
  C300                    1.00   0.14  0.00  0.00  0.86  0.00  0.00  0.00  0.00  0.00
  C301                    1.00   0.14  0.00  0.00  0.86  0.00  0.00  0.00  0.00  0.00
  C302                    1.00   0.00  0.00  0.00  1.00  0.00  0.00  0.00  0.00  0.00
  C303                    1.00   0.00  0.00  0.00  1.00  0.00  0.00  0.00  0.00  0.00
  C353                    1.00   0.23  0.00  0.00  0.00  0.00  0.00  0.77  0.00  0.00
  
  
  *************************
  Conduit Surcharge Summary
  *************************
  
  No conduits were surcharged.
  
  
  ***************************
  Link Pollutant Load Summary
  ***************************
  
  --------------------------------------------------------------
                                 TSS            TP           TDP
  Link                            kg            kg            kg
  --------------------------------------------------------------
  FID1123                     24.650         0.015         0.024
  FID1139                    254.113         0.058         0.085
  FID1148                    438.559         0.115         0.186
  FID1149                    407.081         0.115         0.185
  FID3364                    489.289         0.140         0.229
  FID3671                     13.884         0.015         0.025
  FID3672                    101.630         0.028         0.043
  FID3762                    182.956         0.089         0.234
  FID3765                    442.073         0.171         0.352
  FID4112                    182.074         0.065         0.152
  FID4186                     25.282         0.017         0.039
  FID4187                     25.046         0.016         0.034
  FID4201                    117.691         0.034         0.103
  FID4202                    109.645         0.034         0.101
  FID4203                      0.000         0.000         0.000
  FID4299                     16.659         0.005         0.012
  FID4372                    185.566         0.269         0.375
  FID4498                     75.028         0.027         0.067
  FID4806                   1635.682         0.617         0.480
  FID4807                      0.000         0.000         0.001
  FID4882                      0.000         0.000         0.000
  FID4884                    143.084         0.039         0.043
  FID4914                     22.168         0.020         0.047
  FID4915                      4.924         0.000         0.002
  FID4916                      0.099         0.000         0.002
  FID4917                      0.013         0.000         0.002
  FID5307                     45.792         0.007         0.009
  FID5308                     17.142         0.002         0.009
  FID5312                     42.530         0.006         0.008
  FID5865                    452.573         0.474         0.116
  C9                         151.648         1.062         1.381
  C12                        150.648         1.052         1.370
  C13                        151.320         1.053         1.379
  C14                         99.645         0.694         0.911
  C52                        661.488         0.192         0.320
  C130                        68.318         0.004         0.012
  C131                        66.950         0.004         0.012
  C139                         0.000         0.000         0.000
  C191                       214.741         0.732         0.973
  C193                       213.813         0.720         0.957
  C194                       213.092         0.716         0.954
  C195                       212.881         0.714         0.952
  C196                       201.123         0.719         0.951
  C197                       654.771         0.883         1.302
  C198                       837.521         0.970         1.533
  C199                       837.479         0.968         1.531
  C200                       837.155         0.966         1.528
  C201                       837.188         0.963         1.525
  C202                       836.633         0.964         1.538
  C203                       836.383         0.962         1.536
  C204                       836.044         0.961         1.535
  C205                      1277.906         1.081         1.785
  C206                      1459.220         1.145         1.936
  C207                      1461.801         1.142         1.934
  C208                      1473.113         1.147         1.964
  C209                      1471.151         1.145         1.962
  C210                      1471.177         1.144         1.960
  C211                      1470.734         1.143         1.959
  C212                      2055.223         1.332         2.393
  C213                      2067.518         1.332         2.396
  C214                      2068.288         1.331         2.395
  C215                      2118.440         1.345         2.479
  C216                      2104.461         1.339         2.473
  C217                      2214.890         1.372         2.573
  C218                      2875.516         1.563         2.891
  C219                      2878.224         1.561         2.889
  C220                      2878.904         1.558         2.885
  C221                      2903.486         1.573         2.954
  C222                      3229.599         1.659         3.080
  C223                      3676.414         1.739         3.223
  C224                      3687.597         1.736         3.220
  C225                      3695.725         1.739         3.251
  C226                      3696.116         1.736         3.248
  C227                      3787.243         1.748         3.308
  C228                      3766.154         1.764         3.381
  C229                      4090.185         1.873         3.671
  C230                      4104.345         1.877         3.682
  C231                      4117.987         1.874         3.680
  C232                      4111.088         1.871         3.675
  C233                      4150.406         1.874         3.710
  C234                      4137.548         1.875         3.711
  C235                      4180.359         1.882         3.729
  C236                      4365.477         2.151         4.103
  C237                      4375.051         2.150         4.102
  C238                      4656.282         2.239         4.311
  C239                      4650.296         2.237         4.308
  C240                      4645.763         2.237         4.306
  C241                      4662.785         2.239         4.315
  C242                      4709.027         2.245         4.323
  C243                      4765.826         2.257         4.358
  C244                      4754.447         2.272         4.419
  C245                      4756.268         2.271         4.419
  C246                      6468.250         2.890         4.904
  C247                      6436.627         2.904         4.952
  C248                      6453.295         2.902         4.950
  C249                      6432.070         2.900         4.945
  C250                      6450.339         2.901         4.953
  C251                      6452.258         2.900         4.953
  C252                      6940.193         3.039         5.181
  C253                      6951.425         3.038         5.180
  C254                      6956.332         3.036         5.177
  C255                      6955.646         3.034         5.174
  C256                      7027.479         3.060         5.239
  C257                      7022.254         3.063         5.256
  C258                      7023.580         3.062         5.255
  C259                      7035.689         3.060         5.253
  C260                      7024.445         3.059         5.251
  C261                      7170.442         3.097         5.293
  C262                      7186.213         3.093         5.286
  C263                      7175.347         3.091         5.284
  C264                      7174.003         3.089         5.282
  C265                      7622.888         3.562         5.399
  C266                      7626.658         3.561         5.396
  C267                      7625.629         3.560         5.395
  C268                      7630.041         3.559         5.391
  C269                      7647.232         3.572         5.417
  C270                      7652.045         3.572         5.413
  C271                      7648.129         3.571         5.414
  C272                      7647.525         3.571         5.414
  C273                      8061.371         3.685         5.595
  C274                      8060.442         3.684         5.594
  C275                      8059.505         3.683         5.593
  C276                      8059.212         3.682         5.592
  C277                      8058.126         3.681         5.591
  C278                      8058.053         3.681         5.590
  C279                      8059.140         3.680         5.589
  C280                      8057.921         3.679         5.588
  C281                      8311.570         3.737         5.673
  C282                      8313.246         3.737         5.672
  C283                      8380.379         3.740         5.683
  C284                      8381.209         3.739         5.682
  C285                      8382.474         3.738         5.680
  C286                      8383.377         3.737         5.679
  C287                      8383.671         3.737         5.677
  C288                      8383.010         3.736         5.677
  C289                      8382.998         3.735         5.676
  C290                      8383.457         3.735         5.675
  C291                      8381.594         3.735         5.676
  C292                      8595.951         3.805         5.708
  C293                      8595.651         3.805         5.707
  C294                      8596.501         3.804         5.706
  C295                      8595.010         3.804         5.706
  C296                      8595.710         3.803         5.705
  C297                      8597.180         3.803         5.704
  C298                      8597.733         3.802         5.702
  C299                      8596.840         3.802         5.702
  C300                      8598.508         3.801         5.701
  C301                      8597.859         3.800         5.700
  C302                       151.263         1.058         1.378
  C303                       214.385         0.728         0.967
  C353                       211.337         0.071         0.034
  

  Analysis begun on:  Tue Oct 10 17:08:11 2017
  Analysis ended on:  Tue Oct 10 17:08:36 2017
  Total elapsed time: 00:00:25