
  EPA STORM WATER MANAGEMENT MODEL - VERSION 5.1 (Build 5.1.010)
  --------------------------------------------------------------

  WARNING 04: minimum elevation drop used for Conduit C199
  WARNING 04: minimum elevation drop used for Conduit C200
  WARNING 02: maximum depth increased for Node FID1955
  WARNING 02: maximum depth increased for Node FID1960
  WARNING 02: maximum depth increased for Node FID1965
  WARNING 02: maximum depth increased for Node FID1968
  WARNING 02: maximum depth increased for Node FID2244
  WARNING 02: maximum depth increased for Node FID2442
  WARNING 02: maximum depth increased for Node FID2446
  WARNING 02: maximum depth increased for Node FID5504
  WARNING 02: maximum depth increased for Node FID5527
  WARNING 02: maximum depth increased for Node AFID6926
  WARNING 02: maximum depth increased for Node AFID7376
  
  *********************************************************
  NOTE: The summary statistics displayed in this report are
  based on results found at every computational time step,  
  not just on results from each reporting time step.
  *********************************************************
  
  ****************
  Analysis Options
  ****************
  Flow Units ............... CMS
  Process Models:
    Rainfall/Runoff ........ YES
    RDII ................... NO
    Snowmelt ............... NO
    Groundwater ............ NO
    Flow Routing ........... YES
    Ponding Allowed ........ YES
    Water Quality .......... YES
  Infiltration Method ...... GREEN_AMPT
  Flow Routing Method ...... DYNWAVE
  Starting Date ............ MAY-06-2016 15:00:00
  Ending Date .............. MAY-07-2016 00:00:00
  Antecedent Dry Days ...... 0.0
  Report Time Step ......... 00:01:00
  Wet Time Step ............ 00:01:00
  Dry Time Step ............ 01:00:00
  Routing Time Step ........ 5.00 sec
  Variable Time Step ....... YES
  Maximum Trials ........... 8
  Number of Threads ........ 3
  Head Tolerance ........... 0.001500 m
  
  
  **************************        Volume         Depth
  Runoff Quantity Continuity     hectare-m            mm
  **************************     ---------       -------
  Total Precipitation ......         2.583         6.709
  Evaporation Loss .........         0.000         0.000
  Infiltration Loss ........         1.142         2.966
  Surface Runoff ...........         0.307         0.798
  Final Storage ............         1.134         2.945
  Continuity Error (%) .....        -0.002
  
  
  **************************           TSS            TP           TDP
  Runoff Quality Continuity             kg            kg            kg
  **************************    ----------    ----------    ----------
  Initial Buildup ..........         0.000         0.000         0.000
  Surface Buildup ..........     10763.377        11.160         8.828
  Wet Deposition ...........         0.000         0.000         0.000
  Sweeping Removal .........         0.000         0.000         0.000
  Infiltration Loss ........         0.000         0.000         0.000
  BMP Removal ..............         0.502         0.000         0.000
  Surface Runoff ...........      5024.145         3.092         3.699
  Remaining Buildup ........      5738.730         8.068         5.128
  Continuity Error (%) .....         0.000         0.000         0.000
  
  
  **************************        Volume        Volume
  Flow Routing Continuity        hectare-m      10^6 ltr
  **************************     ---------     ---------
  Dry Weather Inflow .......         0.000         0.000
  Wet Weather Inflow .......         0.307         3.074
  Groundwater Inflow .......         0.000         0.000
  RDII Inflow ..............         0.000         0.000
  External Inflow ..........         1.384        13.843
  External Outflow .........         0.909         9.092
  Flooding Loss ............         0.000         0.000
  Evaporation Loss .........         0.000         0.000
  Exfiltration Loss ........         0.000         0.000
  Initial Stored Volume ....         0.000         0.000
  Final Stored Volume ......         0.791         7.909
  Continuity Error (%) .....        -0.495
  
  
  **************************           TSS            TP           TDP
  Quality Routing Continuity            kg            kg            kg
  **************************    ----------    ----------    ----------
  Dry Weather Inflow .......         0.000         0.000         0.000
  Wet Weather Inflow .......      4999.917         3.042         3.697
  Groundwater Inflow .......         0.000         0.000         0.000
  RDII Inflow ..............         0.000         0.000         0.000
  External Inflow ..........       137.985         1.039         1.284
  External Outflow .........      3838.230         3.473         4.070
  Flooding Loss ............         0.000         0.000         0.000
  Exfiltration Loss ........         0.000         0.000         0.000
  Mass Reacted .............         0.000         0.000         0.000
  Initial Stored Mass ......         0.000         0.000         0.000
  Final Stored Mass ........        79.321         0.516         0.758
  Continuity Error (%) .....        23.752         2.259         3.065
  
  
  *************************
  Highest Continuity Errors
  *************************
  Node FID2827 (12.44%)
  Node FID2824 (11.54%)
  Node J72 (2.68%)
  Node FID2241 (2.66%)
  Node J19 (2.58%)
  
  
  ***************************
  Time-Step Critical Elements
  ***************************
  Link C241 (87.72%)
  Link C14 (11.24%)
  
  
  ********************************
  Highest Flow Instability Indexes
  ********************************
  All links are stable.
  
  
  *************************
  Routing Time Step Summary
  *************************
  Minimum Time Step           :     0.45 sec
  Average Time Step           :     1.00 sec
  Maximum Time Step           :     5.00 sec
  Percent in Steady State     :     0.00
  Average Iterations per Step :     2.00
  Percent Not Converging      :     0.00
  
  
  ***************************
  Subcatchment Runoff Summary
  ***************************
  
  --------------------------------------------------------------------------------------------------------
                            Total      Total      Total      Total      Total       Total     Peak  Runoff
                           Precip      Runon       Evap      Infil     Runoff      Runoff   Runoff   Coeff
  Subcatchment                 mm         mm         mm         mm         mm    10^6 ltr      CMS
  --------------------------------------------------------------------------------------------------------
  S0                         5.84       0.00       0.00       4.91       0.11        0.00     0.00   0.018
  S1                         5.84       0.00       0.00       2.01       0.43        0.04     0.01   0.074
  S2                         6.35       0.00       0.00       1.14       0.59        0.10     0.03   0.093
  S3                         5.84       0.00       0.00       3.46       0.27        0.01     0.01   0.047
  S4                         5.84       0.00       0.00       2.24       0.41        0.04     0.02   0.070
  S6                         6.35       0.00       0.00      -0.10       0.71        0.01     0.00   0.112
  S7                         6.35       0.00       0.00       1.96       1.67        0.65     0.25   0.263
  S8                         6.35       0.00       0.00      -0.10       0.71        0.00     0.00   0.112
  S9                         6.35       0.00       0.00       0.92       0.62        0.00     0.00   0.097
  S10                        6.35       0.00       0.00       1.06       0.60        0.00     0.00   0.095
  S11                        6.35       0.00       0.00       4.75       0.18        0.00     0.00   0.029
  S12                        6.35       0.00       0.00       1.33       0.57        0.00     0.00   0.090
  S13                        6.35       0.00       0.00       1.63       0.53        0.04     0.01   0.084
  S14                        6.35       0.00       0.00       4.10       0.26        0.00     0.00   0.040
  S16                        6.35       0.00       0.00       3.48       1.70        0.09     0.03   0.268
  S17                        6.35       0.00       0.00       1.27       0.58        0.11     0.03   0.091
  S18                        6.35       0.00       0.00       0.49       0.67        0.00     0.00   0.105
  S19                        6.35       0.00       0.00       2.94       0.39        0.01     0.00   0.061
  S20                        6.35       0.00       0.00       1.46       0.56        0.00     0.00   0.088
  S21                        6.35       0.00       0.00       4.64       1.16        0.62     0.18   0.182
  S22                        6.35       0.00       0.00       0.85       0.62        0.00     0.00   0.098
  S23                        6.35       0.00       0.00       3.37       0.34        0.01     0.00   0.053
  S24                        6.35       0.00       0.00       3.12       0.37        0.01     0.00   0.058
  S25                        6.35       0.00       0.00       1.71       0.53        0.01     0.00   0.083
  S27                        6.35       0.00       0.00       2.12       0.48        0.00     0.00   0.076
  S28                        5.84       0.00       0.00       5.83       0.00        0.00     0.00   0.000
  S29                        5.84       0.00       0.00       5.79       0.01        0.00     0.00   0.001
  S30                        6.35       0.00       0.00       6.32       0.00        0.00     0.00   0.000
  S31                        6.35       0.00       0.00       6.34       0.00        0.00     0.00   0.000
  S32                        6.35       0.00       0.00       4.37       0.23        0.00     0.00   0.036
  S33                        6.35       0.00       0.00       0.64       0.65        0.01     0.00   0.102
  S34                        6.35       0.00       0.00       3.70       1.40        0.49     0.14   0.220
  S35                        6.35       0.00       0.00       3.09       0.37        0.00     0.00   0.058
  S36                        6.35       0.00       0.00       4.81       0.18        0.00     0.00   0.028
  S37                        6.35       0.00       0.00       1.02       0.61        0.00     0.00   0.095
  S39                        6.35       0.00       0.00       3.27       0.35        0.05     0.02   0.055
  S40                        6.35       0.00       0.00       4.06       0.26        0.01     0.00   0.041
  S41                        6.35       0.00       0.00       1.43       0.56        0.08     0.03   0.088
  S42                        6.35       0.00       0.00       1.90       0.50        0.05     0.02   0.079
  S43                        6.35       0.00       0.00       4.44       0.22        0.00     0.00   0.034
  S44                        6.35       0.00       0.00       1.98       0.50        0.11     0.04   0.078
  S45                        8.13       0.00       0.00       3.86       0.49        0.00     0.00   0.061
  S47                        8.13       0.00       0.00       2.58       0.64        0.03     0.02   0.078
  S48                        8.13       0.00       0.00       3.36       0.55        0.00     0.00   0.068
  S49                        8.13       0.00       0.00       2.77       0.61        0.11     0.07   0.075
  S51                        8.13       0.00       0.00       6.76       0.16        0.00     0.00   0.020
  S52                        8.13       0.00       0.00       3.14       0.57        0.04     0.03   0.070
  S53                        8.13       0.00       0.00       2.97       0.59        0.08     0.05   0.072
  S54                        8.13       0.00       0.00       4.22       0.44        0.04     0.01   0.054
  S55                        8.13       0.00       0.00       3.16       0.56        0.09     0.02   0.069
  S56                        8.13       0.00       0.00       5.45       0.30        0.00     0.00   0.037
  S57                        8.13       0.00       0.00       2.53       0.64        0.01     0.00   0.078
  S58                        8.13       0.00       0.00       3.56       0.52        0.02     0.01   0.064
  S59                        8.13       0.00       0.00       6.78       0.15        0.00     0.00   0.019
  S60                        8.13       0.00       0.00       5.33       0.32        0.01     0.00   0.039
  S61                        8.13       0.00       0.00       6.96       0.13        0.00     0.00   0.016
  S62                        8.13       0.00       0.00       6.38       0.20        0.01     0.00   0.025
  S63                        6.35       0.00       0.00       5.15       0.14        0.00     0.00   0.022
  S64                        6.35       0.00       0.00       2.21       0.47        0.01     0.00   0.074
  S65                        6.35       0.00       0.00       3.83       0.29        0.05     0.02   0.045
  
  
  ****************************
  Subcatchment Washoff Summary
  ****************************
  
  --------------------------------------------------------------
                                 TSS            TP           TDP
  Subcatchment                    kg            kg            kg
  --------------------------------------------------------------
  S0                           0.000         0.000         0.000
  S1                         119.985         0.025         0.021
  S2                         167.362         0.066         0.043
  S3                          23.692         0.008         0.005
  S4                         111.587         0.035         0.021
  S6                          17.845         0.009         0.005
  S7                         695.540         0.895         0.605
  S8                           0.221         0.000         0.000
  S9                           0.261         0.000         0.000
  S10                          2.976         0.001         0.000
  S11                          0.001         0.000         0.000
  S12                          0.152         0.000         0.000
  S13                         66.664         0.025         0.018
  S14                          0.490         0.000         0.001
  S16                        296.737         0.032         0.122
  S17                        186.700         0.073         0.049
  S18                          0.266         0.000         0.000
  S19                         14.465         0.004         0.005
  S20                          4.778         0.002         0.001
  S21                       1114.250         0.179         1.543
  S22                          1.687         0.001         0.000
  S23                          7.333         0.005         0.005
  S24                         16.021         0.004         0.004
  S25                         11.630         0.010         0.006
  S27                          5.101         0.003         0.001
  S28                          0.000         0.000         0.000
  S29                          0.000         0.000         0.000
  S30                          0.000         0.000         0.000
  S31                          0.000         0.000         0.000
  S32                          3.435         0.000         0.001
  S33                         13.483         0.006         0.003
  S34                        555.040         0.950         0.797
  S35                          2.721         0.001         0.001
  S36                          9.087         0.000         0.001
  S37                          5.720         0.005         0.002
  S39                        109.224         0.033         0.032
  S40                         11.590         0.002         0.004
  S41                        143.611         0.054         0.034
  S42                        124.032         0.036         0.025
  S43                         13.127         0.001         0.003
  S44                        252.818         0.080         0.058
  S45                          0.450         0.001         0.000
  S47                         38.197         0.049         0.017
  S48                          3.078         0.003         0.001
  S49                        189.710         0.175         0.070
  S51                          6.104         0.002         0.002
  S52                         70.137         0.062         0.023
  S53                        144.055         0.086         0.036
  S54                         63.363         0.027         0.025
  S55                        165.803         0.077         0.053
  S56                          0.089         0.000         0.000
  S57                         10.692         0.008         0.004
  S58                         40.161         0.011         0.008
  S59                         14.969         0.001         0.001
  S60                          9.634         0.004         0.005
  S61                          3.969         0.000         0.000
  S62                         13.532         0.007         0.005
  S63                          9.382         0.001         0.001
  S64                         10.456         0.013         0.008
  S65                        120.734         0.019         0.023
  --------------------------------------------------------------
  System                    5024.145         3.092         3.699
  
  
  ******************
  Node Depth Summary
  ******************
  
  ---------------------------------------------------------------------------------
                                 Average  Maximum  Maximum  Time of Max    Reported
                                   Depth    Depth      HGL   Occurrence   Max Depth
  Node                 Type       Meters   Meters   Meters  days hr:min      Meters
  ---------------------------------------------------------------------------------
  FID1936              JUNCTION     0.15     0.25  1376.55     0  04:05        0.08
  FID1955              JUNCTION     0.15     0.22  1376.14     0  04:15        0.07
  FID1960              JUNCTION     0.15     0.20  1376.06     0  04:15        0.06
  FID1965              JUNCTION     0.14     0.20  1376.50     0  04:15        0.06
  FID1968              JUNCTION     0.14     0.18  1376.58     0  03:44        0.05
  FID2239              JUNCTION     0.15     0.22  1374.73     0  03:30        0.07
  FID2241              JUNCTION     0.13     0.18  1373.31     0  03:30        0.05
  FID2242              JUNCTION     0.14     0.18  1374.22     0  03:30        0.06
  FID2244              JUNCTION     0.13     0.17  1374.53     0  03:30        0.05
  FID2440              JUNCTION     0.46     0.53  1374.78     0  04:20        0.16
  FID2442              JUNCTION     0.00     0.00  1375.27     0  00:00        0.00
  FID2446              JUNCTION     0.15     0.28  1376.08     0  04:05        0.08
  FID2447              JUNCTION     0.15     0.26  1375.96     0  04:05        0.08
  FID2455              JUNCTION     0.37     0.46  1374.44     0  04:20        0.14
  FID2711              JUNCTION     0.14     0.19  1370.37     0  03:50        0.06
  FID2719              JUNCTION     0.15     0.27  1370.37     0  04:05        0.08
  FID2720              JUNCTION     0.15     0.26  1370.46     0  03:50        0.08
  FID2824              JUNCTION     0.12     0.16  1371.44     0  03:55        0.05
  FID2827              JUNCTION     0.13     0.19  1371.49     0  04:10        0.06
  FID2828              JUNCTION     0.14     0.19  1371.51     0  03:29        0.06
  FID2832              JUNCTION     0.15     0.22  1370.82     0  04:10        0.07
  FID2833              JUNCTION     0.18     0.31  1370.93     0  04:10        0.09
  FID2839              JUNCTION     0.18     0.33  1371.53     0  04:20        0.10
  FID2873              JUNCTION     0.15     0.21  1370.91     0  04:10        0.06
  FID2964              JUNCTION     0.16     0.26  1371.04     0  04:10        0.08
  FID2965              JUNCTION     0.44     0.71  1370.97     0  04:45        0.22
  FID4584              JUNCTION     0.00     0.00  1371.34     0  00:00        0.00
  FID5068              JUNCTION     0.14     0.17  1375.55     0  03:30        0.05
  FID5072              JUNCTION     0.54     0.66  1373.95     0  04:32        0.20
  FID5140              JUNCTION     0.18     0.30  1373.52     0  04:20        0.09
  FID5435              JUNCTION     0.16     0.25  1373.00     0  04:05        0.08
  FID5437              JUNCTION     0.13     0.16  1373.11     0  03:30        0.05
  FID5503              JUNCTION     0.08     0.11  1371.44     0  09:00        0.03
  FID5504              JUNCTION     0.15     0.19  1371.55     0  04:10        0.06
  FID5527              JUNCTION     0.14     0.18  1372.68     0  03:30        0.05
  FID5568              JUNCTION     0.52     0.68  1373.07     0  04:23        0.21
  FID5784              JUNCTION     0.51     0.69  1372.69     0  04:34        0.21
  FID5785              JUNCTION     0.14     0.20  1374.63     0  03:31        0.06
  AFID6926             JUNCTION     0.14     0.19  1369.99     0  04:15        0.06
  AFID7360             JUNCTION     0.48     0.79  1370.92     0  04:46        0.24
  AFID7363             JUNCTION     0.47     0.77  1370.94     0  04:46        0.24
  AFID7376             JUNCTION     0.16     0.25  1371.48     0  04:10        0.08
  AFID7377             JUNCTION     0.40     0.61  1371.29     0  04:37        0.19
  AFID7705             JUNCTION     0.59     0.62  1375.59     0  04:15        0.19
  AFID7706             JUNCTION     0.65     0.68  1375.60     0  04:15        0.21
  AFID7792             JUNCTION     0.16     0.26  1375.06     0  03:30        0.08
  AFID8223             JUNCTION     0.52     0.69  1372.69     0  04:34        0.21
  J1                   JUNCTION     0.86     0.86  1375.86     0  04:19        0.26
  FID4901              JUNCTION     0.57     0.59  1375.66     0  04:17        0.18
  J9                   JUNCTION     0.74     0.75  1375.84     0  04:19        0.23
  J11                  JUNCTION     0.59     0.60  1375.80     0  04:19        0.18
  J12                  JUNCTION     0.57     0.59  1375.71     0  04:18        0.18
  J13                  JUNCTION     0.56     0.59  1375.67     0  04:17        0.18
  FID4902              JUNCTION     0.58     0.61  1375.65     0  04:17        0.18
  J14                  JUNCTION     0.46     0.50  1375.42     0  04:05        0.15
  J15                  JUNCTION     0.42     0.48  1375.14     0  04:05        0.15
  J16                  JUNCTION     0.43     0.49  1375.13     0  04:05        0.15
  FID2449              JUNCTION     0.47     0.54  1374.86     0  04:22        0.17
  J17                  JUNCTION     0.36     0.45  1374.42     0  04:20        0.14
  J19                  JUNCTION     0.50     0.60  1374.15     0  04:31        0.18
  FID5069              JUNCTION     0.57     0.69  1373.94     0  04:32        0.21
  FID5139              JUNCTION     0.53     0.70  1373.05     0  04:23        0.21
  J24                  JUNCTION     0.53     0.70  1373.06     0  04:23        0.21
  FID4984              JUNCTION     0.53     0.71  1372.67     0  04:34        0.22
  FID2669              JUNCTION     0.34     0.58  1369.02     0  05:04        0.18
  FID2712              JUNCTION     0.36     0.61  1369.80     0  04:59        0.19
  FID2718              JUNCTION     0.37     0.62  1369.86     0  04:59        0.19
  FID2838              JUNCTION     0.56     0.89  1370.83     0  04:44        0.27
  FID2825              JUNCTION     0.61     0.95  1370.86     0  04:45        0.29
  FID2823              JUNCTION     0.64     1.00  1370.88     0  04:46        0.31
  FID5505              JUNCTION     0.55     0.88  1370.90     0  04:46        0.27
  FID5436              JUNCTION     0.53     0.74  1372.06     0  04:22        0.23
  FID5438              JUNCTION     0.47     0.67  1372.09     0  04:31        0.20
  J49                  JUNCTION     0.60     0.62  1375.64     0  04:16        0.19
  J50                  JUNCTION     0.63     0.66  1375.62     0  04:16        0.20
  J51                  JUNCTION     0.67     0.71  1375.60     0  04:15        0.22
  J52                  JUNCTION     0.69     0.72  1375.60     0  04:15        0.22
  J53                  JUNCTION     0.46     0.50  1375.42     0  04:05        0.15
  J54                  JUNCTION     0.46     0.50  1375.45     0  04:06        0.15
  J55                  JUNCTION     0.52     0.55  1375.58     0  04:15        0.17
  J56                  JUNCTION     0.50     0.53  1375.55     0  04:15        0.16
  J57                  JUNCTION     0.47     0.50  1375.53     0  04:21        0.15
  J58                  JUNCTION     0.47     0.50  1375.48     0  04:21        0.15
  FID1935              JUNCTION     0.46     0.51  1375.40     0  04:05        0.15
  J59                  JUNCTION     0.46     0.51  1375.38     0  04:06        0.15
  J60                  JUNCTION     0.45     0.50  1375.32     0  04:07        0.15
  J61                  JUNCTION     0.43     0.48  1375.25     0  04:08        0.15
  J62                  JUNCTION     0.42     0.47  1375.22     0  04:08        0.14
  J63                  JUNCTION     0.43     0.49  1375.18     0  04:07        0.15
  J64                  JUNCTION     0.42     0.48  1375.09     0  04:07        0.14
  J65                  JUNCTION     0.39     0.45  1375.03     0  04:10        0.14
  J66                  JUNCTION     0.45     0.53  1374.74     0  04:21        0.16
  J67                  JUNCTION     0.45     0.52  1374.67     0  04:22        0.16
  J68                  JUNCTION     0.43     0.50  1374.57     0  04:22        0.15
  J69                  JUNCTION     0.56     0.67  1374.39     0  04:21        0.20
  J70                  JUNCTION     0.55     0.65  1374.30     0  04:23        0.20
  J71                  JUNCTION     0.53     0.63  1374.23     0  04:25        0.19
  J72                  JUNCTION     0.55     0.67  1374.02     0  04:33        0.20
  J73                  JUNCTION     0.57     0.69  1373.91     0  04:33        0.21
  J74                  JUNCTION     0.57     0.69  1373.67     0  04:40        0.21
  J75                  JUNCTION     0.57     0.69  1373.53     0  04:47        0.21
  J76                  JUNCTION     0.53     0.70  1373.04     0  04:23        0.21
  J77                  JUNCTION     0.52     0.70  1372.90     0  04:31        0.21
  J78                  JUNCTION     0.52     0.69  1372.76     0  04:32        0.21
  J79                  JUNCTION     0.52     0.69  1372.70     0  04:34        0.21
  J80                  JUNCTION     0.45     0.63  1372.12     0  04:31        0.19
  J81                  JUNCTION     0.50     0.71  1371.70     0  04:33        0.22
  J82                  JUNCTION     0.48     0.70  1371.63     0  04:34        0.21
  J83                  JUNCTION     0.42     0.64  1371.44     0  04:36        0.19
  J84                  JUNCTION     0.38     0.58  1371.22     0  04:39        0.18
  J85                  JUNCTION     0.38     0.60  1371.12     0  04:42        0.18
  J86                  JUNCTION     0.40     0.65  1371.02     0  04:45        0.20
  J87                  JUNCTION     0.47     0.76  1370.95     0  04:46        0.23
  J88                  JUNCTION     0.53     0.86  1370.90     0  04:46        0.26
  J89                  JUNCTION     0.57     0.91  1370.89     0  04:46        0.28
  J90                  JUNCTION     0.53     0.87  1370.82     0  04:44        0.26
  J91                  JUNCTION     0.52     0.86  1370.75     0  04:46        0.26
  J92                  JUNCTION     0.52     0.86  1370.70     0  04:48        0.26
  J93                  JUNCTION     0.51     0.86  1370.58     0  04:50        0.26
  J94                  JUNCTION     0.52     0.85  1370.51     0  04:52        0.26
  J95                  JUNCTION     0.52     0.85  1370.48     0  04:52        0.26
  J96                  JUNCTION     0.51     0.83  1370.39     0  04:54        0.25
  J97                  JUNCTION     0.50     0.82  1370.32     0  04:55        0.25
  J98                  JUNCTION     0.48     0.80  1370.25     0  04:55        0.24
  J99                  JUNCTION     0.47     0.78  1370.18     0  04:56        0.24
  J100                 JUNCTION     0.45     0.75  1370.11     0  04:57        0.23
  J101                 JUNCTION     0.43     0.72  1370.04     0  04:57        0.22
  J102                 JUNCTION     0.37     0.62  1369.89     0  04:58        0.19
  J103                 JUNCTION     0.37     0.61  1369.84     0  04:59        0.19
  J104                 JUNCTION     0.36     0.60  1369.76     0  05:00        0.18
  J105                 JUNCTION     0.35     0.59  1369.72     0  05:00        0.18
  J106                 JUNCTION     0.34     0.58  1369.65     0  05:00        0.18
  J107                 JUNCTION     0.34     0.58  1369.51     0  05:01        0.18
  J108                 JUNCTION     0.33     0.58  1369.37     0  05:02        0.18
  J109                 JUNCTION     0.33     0.58  1369.26     0  05:02        0.18
  J110                 JUNCTION     0.33     0.58  1369.16     0  05:03        0.18
  J111                 JUNCTION     0.33     0.58  1369.06     0  05:04        0.18
  J112                 JUNCTION     0.34     0.58  1368.90     0  05:05        0.18
  J113                 JUNCTION     0.33     0.58  1368.80     0  05:05        0.18
  J114                 JUNCTION     0.33     0.58  1368.69     0  05:06        0.18
  J115                 JUNCTION     0.33     0.58  1368.63     0  05:06        0.18
  J116                 JUNCTION     0.33     0.58  1368.56     0  05:07        0.18
  J117                 JUNCTION     0.33     0.58  1368.46     0  05:07        0.18
  J118                 JUNCTION     0.34     0.59  1368.36     0  05:07        0.18
  J119                 JUNCTION     0.35     0.60  1368.30     0  05:08        0.18
  J120                 JUNCTION     0.37     0.62  1368.22     0  05:08        0.19
  FID2451              JUNCTION     0.46     0.53  1374.81     0  04:20        0.16
  J121                 JUNCTION     0.40     0.61  1371.36     0  04:37        0.19
  J122                 JUNCTION     0.40     0.61  1371.33     0  04:37        0.19
  FID3706              JUNCTION     0.52     0.86  1370.59     0  04:50        0.26
  FID2831              JUNCTION     0.52     0.85  1370.47     0  04:52        0.26
  FID2689              OUTFALL      0.18     0.31  1367.81     0  05:08        0.09
  
  
  *******************
  Node Inflow Summary
  *******************
  
  -------------------------------------------------------------------------------------------------
                                  Maximum  Maximum                  Lateral       Total        Flow
                                  Lateral    Total  Time of Max      Inflow      Inflow     Balance
                                   Inflow   Inflow   Occurrence      Volume      Volume       Error
  Node                 Type           CMS      CMS  days hr:min    10^6 ltr    10^6 ltr     Percent
  -------------------------------------------------------------------------------------------------
  FID1936              JUNCTION     0.027    0.027     0  04:05      0.0383      0.0383       0.447
  FID1955              JUNCTION     0.022    0.022     0  04:15      0.0917      0.0917       0.190
  FID1960              JUNCTION     0.010    0.010     0  04:15      0.0418      0.0418       0.416
  FID1965              JUNCTION     0.005    0.005     0  04:15      0.0211      0.0211       0.833
  FID1968              JUNCTION     0.002    0.002     0  04:15     0.00634     0.00634       2.827
  FID2239              JUNCTION     0.003    0.003     0  03:30     0.00704     0.00704       4.197
  FID2241              JUNCTION     0.000    0.002     0  03:30           0     0.00646       2.727
  FID2242              JUNCTION     0.002    0.002     0  03:30     0.00664     0.00664       2.800
  FID2244              JUNCTION     0.001    0.001     0  03:30     0.00257     0.00257       7.262
  FID2440              JUNCTION     0.000    0.534     0  04:20           0        11.8       0.434
  FID2442              JUNCTION     0.000    0.000     0  00:00           0           0       0.000 ltr
  FID2446              JUNCTION     0.019    0.019     0  04:05      0.0271      0.0271       2.518
  FID2447              JUNCTION     0.000    0.019     0  04:05           0      0.0264       0.345
  FID2455              JUNCTION     0.019    0.538     0  04:20      0.0513        11.6       0.469
  FID2711              JUNCTION     0.000    0.005     0  03:50           0     0.00854       1.781
  FID2719              JUNCTION     0.025    0.025     0  04:05      0.0407      0.0407       0.518
  FID2720              JUNCTION     0.006    0.006     0  04:05     0.00879     0.00879       2.872
  FID2824              JUNCTION     0.000    0.000     0  04:10    0.000117     0.00143      13.049
  FID2827              JUNCTION     0.000    0.000     0  03:30    0.000133      0.0015      14.212
  FID2828              JUNCTION     0.000    0.000     0  03:30     0.00157     0.00157      14.795
  FID2832              JUNCTION     0.000    0.026     0  04:10           0       0.101       0.158
  FID2833              JUNCTION     0.026    0.026     0  04:10       0.102       0.102       0.273
  FID2839              JUNCTION     0.246    0.246     0  04:20       0.653       0.653       0.063
  FID2873              JUNCTION     0.003    0.003     0  04:10      0.0133      0.0133       1.987
  FID2964              JUNCTION     0.028    0.028     0  04:10      0.0946      0.0946       0.363
  FID2965              JUNCTION     0.000    0.719     0  04:40           0         9.8       0.761
  FID4584              JUNCTION     0.000    0.000     0  00:00           0           0       0.000 ltr
  FID5068              JUNCTION     0.001    0.001     0  03:30     0.00316     0.00316       5.811
  FID5072              JUNCTION     0.020    0.545     0  04:30      0.0517        10.7       0.431
  FID5140              JUNCTION     0.142    0.142     0  04:20       0.494       0.494       0.035
  FID5435              JUNCTION     0.181    0.181     0  04:05        0.62       0.619       0.028
  FID5437              JUNCTION     0.000    0.000     0  03:30    0.000863    0.000863      25.311
  FID5503              JUNCTION     0.000    0.000     0  03:24    0.000125    0.000125     125.233 ltr
  FID5504              JUNCTION     0.010    0.010     0  04:10      0.0403      0.0403       0.462
  FID5527              JUNCTION     0.002    0.002     0  03:30     0.00834     0.00834       2.112
  FID5568              JUNCTION     0.000    0.540     0  04:39     0.00124        10.2       1.644
  FID5784              JUNCTION     0.000    0.639     0  04:31           0        10.3       0.208
  FID5785              JUNCTION     0.000    0.003     0  03:30           0     0.00676       2.401
  AFID6926             JUNCTION     0.010    0.010     0  04:15      0.0425      0.0425       0.410
  AFID7360             JUNCTION     0.000    0.716     0  04:44    7.56e-05        9.66       0.562
  AFID7363             JUNCTION     0.000    0.716     0  04:44           0        9.68       0.259
  AFID7376             JUNCTION     0.028    0.028     0  04:10       0.111       0.111       0.330
  AFID7377             JUNCTION     0.000    0.722     0  04:30           0        9.97       0.257
  AFID7705             JUNCTION     0.000    0.468     0  04:15           0        12.9       0.383
  AFID7706             JUNCTION     0.000    0.458     0  04:16           0          13       0.352
  AFID7792             JUNCTION     0.040    0.040     0  03:30       0.112       0.112       0.156
  AFID8223             JUNCTION     0.000    0.638     0  04:31           0        10.3       0.048
  J1                   JUNCTION     0.654    0.654     0  04:15          21          21       0.199
  FID4901              JUNCTION     0.000    0.438     0  04:30           0        13.5       0.330
  J9                   JUNCTION     0.000    0.661     0  00:01           0        20.9       0.415
  J11                  JUNCTION     0.000    0.654     0  04:15           0        20.8       0.774
  J12                  JUNCTION     0.001    0.655     0  04:30     0.00388        20.7       0.850
  J13                  JUNCTION    -0.220    0.656     0  04:35       -7.13        20.5      -0.233
  FID4902              JUNCTION     0.000    0.439     0  04:30           0        13.4       0.524
  J14                  JUNCTION     0.052    0.492     0  04:05      0.0819        12.6       0.305
  J15                  JUNCTION     0.068    0.533     0  04:05       0.114        12.3       0.273
  J16                  JUNCTION     0.001    0.530     0  04:05     0.00159        12.3       0.274
  FID2449              JUNCTION     0.000    0.510     0  04:09    0.000229          12       2.172
  J17                  JUNCTION     0.029    0.554     0  04:20      0.0759        11.6       0.244
  J19                  JUNCTION     0.003    0.545     0  04:23     0.00661        11.2       2.650
  FID5069              JUNCTION     0.000    0.545     0  04:30           0        10.7       0.377
  FID5139              JUNCTION     0.000    0.645     0  04:20           0        10.5       0.124
  J24                  JUNCTION     0.003    0.550     0  04:40     0.00752          10       0.176
  FID4984              JUNCTION     0.000    0.639     0  04:31           0        10.3       1.812
  FID2669              JUNCTION     0.000    0.781     0  05:03           0        9.31       0.198
  FID2712              JUNCTION     0.000    0.782     0  04:58           0        9.51       0.226
  FID2718              JUNCTION     0.000    0.782     0  04:57           0        9.53       0.162
  FID2838              JUNCTION     0.000    0.799     0  04:36           0        9.98       0.434
  FID2825              JUNCTION     0.000    0.718     0  04:50           0        9.41       0.728
  FID2823              JUNCTION     0.000    0.717     0  04:48           0        9.48       1.209
  FID5505              JUNCTION     0.000    0.716     0  04:46           0        9.59       0.343
  FID5436              JUNCTION     0.000    0.744     0  04:20           0        10.5       1.964
  FID5438              JUNCTION     0.000    0.643     0  04:37           0        9.96       0.328
  J49                  JUNCTION     0.000    0.440     0  04:30           0        13.4       0.859
  J50                  JUNCTION     0.000    0.440     0  04:35    4.67e-05        13.2       1.462
  J51                  JUNCTION     0.000    0.443     0  04:35           0          13       1.138
  J52                  JUNCTION     0.000    0.445     0  04:35           0        12.9       0.332
  J53                  JUNCTION     0.000    0.469     0  04:15           0        12.5       0.348
  J54                  JUNCTION     0.000    0.468     0  04:15           0        12.6       0.514
  J55                  JUNCTION     0.000    0.468     0  04:15           0        12.9       0.463
  J56                  JUNCTION     0.000    0.468     0  04:15           0        12.8       0.513
  J57                  JUNCTION     0.000    0.468     0  04:15           0        12.8       0.653
  J58                  JUNCTION     0.000    0.468     0  04:16     0.00114        12.7       0.700
  FID1935              JUNCTION     0.000    0.515     0  04:05           0        12.6       0.398
  J59                  JUNCTION     0.000    0.511     0  04:05           0        12.5       0.588
  J60                  JUNCTION     0.001    0.503     0  04:05      0.0016        12.5       0.920
  J61                  JUNCTION     0.000    0.492     0  04:06           0        12.3       0.626
  J62                  JUNCTION     0.000    0.491     0  04:08           0        12.3       0.287
  J63                  JUNCTION     0.000    0.491     0  04:09           0        12.2       0.288
  J64                  JUNCTION     0.000    0.526     0  04:05           0        12.2       0.297
  J65                  JUNCTION     0.004    0.525     0  04:05     0.00511        12.2       1.761
  J66                  JUNCTION     0.000    0.532     0  04:20           0        11.8       0.546
  J67                  JUNCTION     0.000    0.531     0  04:20           0        11.7       0.807
  J68                  JUNCTION     0.002    0.530     0  04:21     0.00418        11.6       0.861
  J69                  JUNCTION     0.000    0.552     0  04:20           0        11.6       0.908
  J70                  JUNCTION     0.001    0.550     0  04:20     0.00211        11.5       1.181
  J71                  JUNCTION     0.000    0.547     0  04:22           0        11.3       0.883
  J72                  JUNCTION     0.002    0.542     0  04:28     0.00568          11       2.758
  J73                  JUNCTION     0.000    0.545     0  04:30           0        10.6       0.915
  J74                  JUNCTION     0.000    0.544     0  04:32           0        10.5       1.339
  J75                  JUNCTION     0.001    0.543     0  04:35     0.00219        10.4       2.072
  J76                  JUNCTION     0.000    0.644     0  04:20           0        10.5       0.488
  J77                  JUNCTION     0.017    0.648     0  04:21      0.0482        10.5       0.902
  J78                  JUNCTION     0.000    0.643     0  04:23           0        10.4       0.671
  J79                  JUNCTION     0.000    0.639     0  04:24           0        10.3       0.244
  J80                  JUNCTION     0.002    0.636     0  04:34     0.00556        10.1       1.579
  J81                  JUNCTION     0.000    0.722     0  04:22    0.000971        10.4       2.624
  J82                  JUNCTION     0.000    0.716     0  04:31           0        10.1       1.077
  J83                  JUNCTION     0.000    0.714     0  04:33           0        9.98       0.901
  J84                  JUNCTION     0.000    0.721     0  04:31           0        9.94       0.486
  J85                  JUNCTION     0.000    0.719     0  04:34           0        9.89       0.893
  J86                  JUNCTION     0.000    0.714     0  04:38           0         9.8       0.991
  J87                  JUNCTION     0.000    0.717     0  04:43      0.0015        9.73       0.425
  J88                  JUNCTION     0.000    0.715     0  04:46           0        9.61       0.599
  J89                  JUNCTION     0.000    0.716     0  04:47           0        9.56       0.942
  J90                  JUNCTION     0.000    0.797     0  04:38           0         9.9       0.346
  J91                  JUNCTION     0.000    0.796     0  04:39           0        9.86       0.464
  J92                  JUNCTION     0.000    0.793     0  04:42     5.8e-07        9.82       0.589
  J93                  JUNCTION     0.000    0.789     0  04:46           0        9.73       0.320
  J94                  JUNCTION     0.000    0.787     0  04:47    1.07e-06         9.7       0.344
  J95                  JUNCTION     0.000    0.786     0  04:48           0        9.67       0.133
  J96                  JUNCTION     0.000    0.786     0  04:49           0        9.72       0.502
  J97                  JUNCTION     0.000    0.785     0  04:51           0        9.67       0.423
  J98                  JUNCTION     0.000    0.784     0  04:53           0        9.63       0.370
  J99                  JUNCTION     0.000    0.783     0  04:54           0         9.6       0.311
  J100                 JUNCTION     0.000    0.782     0  04:55           0        9.57       0.263
  J101                 JUNCTION     0.000    0.782     0  04:56           0        9.54       0.303
  J102                 JUNCTION     0.000    0.782     0  04:56           0        9.51       0.247
  J103                 JUNCTION     0.000    0.782     0  04:57           0        9.51       0.185
  J104                 JUNCTION     0.000    0.782     0  04:58           0        9.48       0.241
  J105                 JUNCTION     0.000    0.781     0  04:59           0        9.46       0.297
  J106                 JUNCTION     0.000    0.781     0  04:59           0        9.43       0.341
  J107                 JUNCTION     0.000    0.781     0  05:00           0         9.4       0.353
  J108                 JUNCTION     0.000    0.781     0  05:01    3.85e-06        9.37       0.317
  J109                 JUNCTION     0.000    0.781     0  05:01           0        9.34       0.270
  J110                 JUNCTION     0.000    0.781     0  05:02           0        9.31       0.263
  J111                 JUNCTION     0.000    0.781     0  05:03    3.46e-05        9.29       0.188
  J112                 JUNCTION     0.000    0.781     0  05:03           0         9.3       0.274
  J113                 JUNCTION     0.000    0.781     0  05:04           0        9.27       0.270
  J114                 JUNCTION     0.000    0.781     0  05:05           0        9.25       0.224
  J115                 JUNCTION     0.000    0.781     0  05:05           0        9.22       0.171
  J116                 JUNCTION     0.000    0.780     0  05:05    1.04e-06        9.21       0.228
  J117                 JUNCTION     0.000    0.780     0  05:06           0        9.19       0.280
  J118                 JUNCTION     0.000    0.780     0  05:07           0        9.16       0.244
  J119                 JUNCTION     0.000    0.780     0  05:07           0        9.14       0.249
  J120                 JUNCTION     0.000    0.780     0  05:08           0        9.12       0.277
  FID2451              JUNCTION     0.000    0.510     0  04:25           0        11.8       0.415
  J121                 JUNCTION     0.001    0.713     0  04:35     0.00294         9.9       0.250
  J122                 JUNCTION     0.000    0.713     0  04:35    0.000133        9.88       0.213
  FID3706              JUNCTION     0.000    0.791     0  04:44           0        9.77       0.458
  FID2831              JUNCTION     0.000    0.787     0  04:48           0        9.76       0.315
  FID2689              OUTFALL      0.000    0.780     0  05:08           0        9.09       0.000
  
  
  **********************
  Node Surcharge Summary
  **********************
  
  No nodes were surcharged.
  
  
  *********************
  Node Flooding Summary
  *********************
  
  No nodes were flooded.
  
  
  ***********************
  Outfall Loading Summary
  ***********************
  
  -----------------------------------------------------------------------------------------------------
                         Flow       Avg       Max       Total         Total         Total         Total
                         Freq      Flow      Flow      Volume           TSS            TP           TDP
  Outfall Node           Pcnt       CMS       CMS    10^6 ltr            kg            kg            kg
  -----------------------------------------------------------------------------------------------------
  FID2689               74.69     0.498     0.780       9.092      3783.588         3.127         3.647
  -----------------------------------------------------------------------------------------------------
  System                74.69     0.498     0.780       9.092      3783.588         3.127         3.647
  
  
  ********************
  Link Flow Summary
  ********************
  
  -----------------------------------------------------------------------------
                                 Maximum  Time of Max   Maximum    Max/    Max/
                                  |Flow|   Occurrence   |Veloc|    Full    Full
  Link                 Type          CMS  days hr:min     m/sec    Flow   Depth
  -----------------------------------------------------------------------------
  FID1123              CONDUIT     0.003     0  04:20      0.44    0.06    0.36
  FID1139              CONDUIT     0.024     0  04:05      0.86    0.20    0.30
  FID1148              CONDUIT     0.026     0  04:10      0.50    0.07    0.13
  FID1149              CONDUIT     0.026     0  04:10      1.26    0.01    0.22
  FID3364              CONDUIT     0.028     0  04:10      0.72    0.03    0.29
  FID3671              CONDUIT     0.002     0  04:15      0.58    0.01    0.08
  FID3672              CONDUIT     0.005     0  04:15      0.82    0.04    0.14
  FID3762              CONDUIT     0.010     0  04:15      0.23    0.03    0.42
  FID3765              CONDUIT     0.022     0  04:15      0.43    0.07    0.47
  FID4112              CONDUIT     0.027     0  04:05      0.92    0.05    0.16
  FID4186              CONDUIT     0.002     0  03:30      0.55    0.01    0.08
  FID4187              CONDUIT     0.002     0  03:30      0.87    0.01    0.06
  FID4201              CONDUIT     0.019     0  04:05      0.67    0.22    0.30
  FID4202              CONDUIT     0.019     0  04:05      0.80    0.16    0.26
  FID4203              CONDUIT     0.000     0  00:00      0.00    0.00    0.14
  FID4299              CONDUIT     0.001     0  03:30      0.52    0.01    0.05
  FID4372              CONDUIT     0.142     0  04:20      0.57    0.04    0.32
  FID4498              CONDUIT     0.028     0  04:10      0.88    0.12    0.62
  FID4806              CONDUIT     0.181     0  04:05      4.70    0.02    0.11
  FID4807              CONDUIT     0.000     0  03:30      0.40    0.00    0.04
  FID4882              CONDUIT     0.000     0  00:00      0.00    0.00    0.50
  FID4884              CONDUIT     0.010     0  04:10      0.97    0.00    0.07
  FID4914              CONDUIT     0.002     0  03:30      0.67    0.01    0.53
  FID4915              CONDUIT     0.000     0  03:30      0.12    0.02    0.09
  FID4916              CONDUIT     0.000     0  04:10      0.13    0.01    0.07
  FID4917              CONDUIT     0.000     0  04:10      0.45    0.00    0.47
  FID5307              CONDUIT     0.003     0  03:30      0.26    0.05    0.15
  FID5308              CONDUIT     0.001     0  03:30      0.63    0.01    0.06
  FID5312              CONDUIT     0.002     0  03:31      0.35    0.02    0.08
  FID5865              CONDUIT     0.246     0  04:20      2.95    0.12    0.26
  C9                   CHANNEL     0.661     0  00:01      0.50    0.13    0.57
  C12                  CHANNEL     0.654     0  04:30      0.33    0.53    0.69
  C13                  CHANNEL     0.656     0  04:35      0.45    0.53    0.69
  C14                  CHANNEL     0.436     0  04:36      0.44    0.35    0.69
  C52                  CONDUIT     0.039     0  03:30      0.40    0.07    0.38
  C130                 CONDUIT     0.005     0  03:50      0.30    0.11    0.17
  C131                 CONDUIT     0.005     0  03:50      0.88    0.01    0.23
  C139                 CONDUIT     0.000     0  00:00      0.00    0.00    0.13
  C191                 CHANNEL     0.440     0  04:30      0.34    0.35    0.71
  C193                 CHANNEL     0.443     0  04:35      0.26    0.36    0.79
  C194                 CHANNEL     0.445     0  04:35      0.22    0.36    0.83
  C195                 CHANNEL     0.446     0  04:35      0.26    0.16    0.66
  C196                 CONDUIT     0.438     0  04:30      0.32    0.59    0.76
  C197                 CONDUIT     0.458     0  04:17      0.18    0.40    0.93
  C198                 CHANNEL     0.468     0  04:15      0.21    0.17    0.56
  C199                 CHANNEL     0.468     0  04:15      0.21    3.75    0.65
  C200                 CHANNEL     0.468     0  04:15      0.24    3.39    0.62
  C201                 CHANNEL     0.468     0  04:16      0.22    0.25    0.50
  C202                 CHANNEL     0.468     0  04:15      0.23    0.25    0.50
  C203                 CHANNEL     0.469     0  04:15      0.23    0.25    0.50
  C204                 CHANNEL     0.470     0  04:15      0.33    0.26    0.50
  C205                 CONDUIT     0.489     0  04:05      0.22    0.62    0.61
  C206                 CHANNEL     0.511     0  04:05      0.27    0.28    0.51
  C207                 CHANNEL     0.503     0  04:05      0.24    0.27    0.50
  C208                 CHANNEL     0.492     0  04:06      0.23    0.27    0.49
  C209                 CHANNEL     0.491     0  04:08      0.23    0.27    0.47
  C210                 CHANNEL     0.491     0  04:09      0.28    0.28    0.55
  C211                 CHANNEL     0.492     0  04:10      0.30    0.33    0.49
  C212                 CONDUIT     0.529     0  04:05      0.22    0.56    0.59
  C213                 CHANNEL     0.526     0  04:05      0.30    0.35    0.49
  C214                 CHANNEL     0.523     0  04:05      0.37    0.35    0.47
  C215                 CONDUIT     0.510     0  04:09      0.23    0.54    0.60
  C216                 CONDUIT     0.509     0  04:25      0.27    0.70    0.50
  C217                 CONDUIT     0.511     0  04:25      0.23    0.37    0.39
  C218                 CHANNEL     0.532     0  04:20      0.27    0.35    0.54
  C219                 CHANNEL     0.531     0  04:20      0.27    0.35    0.53
  C220                 CHANNEL     0.529     0  04:21      0.28    0.35    0.52
  C221                 CHANNEL     0.529     0  04:23      0.30    0.35    0.49
  C222                 CONDUIT     0.537     0  04:22      0.30    0.66    0.55
  C223                 CHANNEL     0.552     0  04:20      0.37    0.13    0.49
  C224                 CHANNEL     0.550     0  04:20      0.28    0.66    0.76
  C225                 CHANNEL     0.547     0  04:22      0.28    0.65    0.74
  C226                 CHANNEL     0.545     0  04:23      0.37    0.65    0.72
  C227                 CONDUIT     0.541     0  04:27      0.23    0.81    0.77
  C228                 CHANNEL     0.541     0  04:34      0.36    0.41    0.61
  C229                 CONDUIT     0.545     0  04:30      0.16    0.18    0.45
  C230                 CHANNEL     0.545     0  04:30      0.38    0.41    0.64
  C231                 CHANNEL     0.544     0  04:32      0.33    0.41    0.64
  C232                 CHANNEL     0.543     0  04:35      0.37    0.41    0.64
  C233                 CHANNEL     0.540     0  04:39      0.33    0.40    0.63
  C234                 CONDUIT     0.550     0  04:40      0.24    0.42    0.50
  C235                 CHANNEL     0.551     0  04:40      0.34    0.41    0.65
  C236                 CHANNEL     0.644     0  04:20      0.35    0.57    0.72
  C237                 CHANNEL     0.641     0  04:22      0.35    0.56    0.72
  C238                 CHANNEL     0.643     0  04:23      0.36    0.57    0.72
  C239                 CHANNEL     0.639     0  04:24      0.36    0.56    0.71
  C240                 CHANNEL     0.638     0  04:31      0.42    0.55    0.71
  C241                 CHANNEL     0.638     0  04:31      0.48    0.56    0.71
  C242                 CONDUIT     0.638     0  04:31      0.33    0.41    0.57
  C243                 CHANNEL     0.636     0  04:34      0.36    0.56    0.70
  C244                 CHANNEL     0.643     0  04:37      0.62    0.19    0.42
  C245                 CONDUIT     0.644     0  04:37      0.29    0.33    0.55
  C246                 CHANNEL     0.721     0  04:22      0.30    0.43    0.63
  C247                 CHANNEL     0.716     0  04:31      0.31    0.42    0.62
  C248                 CHANNEL     0.714     0  04:33      0.33    0.42    0.58
  C249                 CHANNEL     0.713     0  04:35      0.41    0.53    0.59
  C250                 CONDUIT     0.713     0  04:35      0.37    0.48    0.48
  C251                 CONDUIT     0.713     0  04:36      0.37    0.48    0.48
  C252                 CHANNEL     0.721     0  04:31      1.11    0.53    0.56
  C253                 CHANNEL     0.719     0  04:34      1.34    0.30    0.55
  C254                 CHANNEL     0.714     0  04:38      0.63    0.30    0.59
  C255                 CHANNEL     0.711     0  04:42      0.32    0.30    0.64
  C256                 CHANNEL     0.717     0  04:43      0.77    0.30    0.70
  C257                 CHANNEL     0.716     0  04:44      2.24    0.30    0.72
  C258                 CONDUIT     0.716     0  04:44      0.36    0.48    0.61
  C259                 CHANNEL     0.715     0  04:46      0.32    0.30    0.78
  C260                 CHANNEL     0.715     0  04:47      0.31    0.30    0.82
  C261                 CHANNEL     0.716     0  04:47      0.88    0.30    0.84
  C262                 CHANNEL     0.717     0  04:48      1.34    0.30    0.90
  C263                 CHANNEL     0.718     0  04:50      0.23    0.31    0.62
  C264                 CONDUIT     0.720     0  04:51      0.26    0.69    0.67
  C265                 CHANNEL     0.797     0  04:38      0.32    0.34    0.56
  C266                 CHANNEL     0.796     0  04:39      0.37    0.29    0.60
  C267                 CHANNEL     0.793     0  04:42      0.36    0.29    0.60
  C268                 CHANNEL     0.790     0  04:44      0.36    0.28    0.60
  C269                 CHANNEL     0.789     0  04:46      0.36    0.28    0.60
  C270                 CHANNEL     0.787     0  04:47      0.35    0.28    0.59
  C271                 CHANNEL     0.786     0  04:48      0.35    0.28    0.59
  C272                 CHANNEL     0.786     0  04:49      0.35    0.28    0.59
  C273                 CHANNEL     0.786     0  04:49      0.36    0.28    0.59
  C274                 CHANNEL     0.785     0  04:51      0.36    0.28    0.58
  C275                 CHANNEL     0.784     0  04:53      0.36    0.28    0.57
  C276                 CHANNEL     0.783     0  04:54      0.38    0.28    0.55
  C277                 CHANNEL     0.782     0  04:55      0.40    0.28    0.54
  C278                 CHANNEL     0.782     0  04:56      0.42    0.28    0.51
  C279                 CHANNEL     0.782     0  04:56      0.49    0.28    0.47
  C280                 CHANNEL     0.782     0  04:57      0.38    0.49    0.63
  C281                 CHANNEL     0.782     0  04:57      0.38    0.49    0.63
  C282                 CHANNEL     0.782     0  04:58      0.38    0.49    0.62
  C283                 CHANNEL     0.782     0  04:58      0.38    0.49    0.62
  C284                 CHANNEL     0.781     0  04:59      0.39    0.49    0.61
  C285                 CHANNEL     0.781     0  04:59      0.40    0.49    0.60
  C286                 CHANNEL     0.781     0  05:00      0.47    0.35    0.59
  C287                 CHANNEL     0.781     0  05:01      0.47    0.35    0.59
  C288                 CHANNEL     0.781     0  05:01      0.47    0.35    0.59
  C289                 CHANNEL     0.781     0  05:02      0.47    0.35    0.59
  C290                 CHANNEL     0.781     0  05:03      0.47    0.35    0.59
  C291                 CHANNEL     0.780     0  05:03      0.47    0.35    0.59
  C292                 CHANNEL     0.781     0  05:03      0.47    0.35    0.59
  C293                 CHANNEL     0.781     0  05:04      0.47    0.35    0.59
  C294                 CHANNEL     0.781     0  05:05      0.47    0.35    0.59
  C295                 CHANNEL     0.781     0  05:05      0.47    0.35    0.59
  C296                 CHANNEL     0.780     0  05:05      0.47    0.35    0.59
  C297                 CHANNEL     0.780     0  05:06      0.46    0.35    0.59
  C298                 CHANNEL     0.780     0  05:07      0.46    0.35    0.60
  C299                 CHANNEL     0.780     0  05:07      0.45    0.35    0.61
  C300                 CHANNEL     0.780     0  05:08      0.43    0.35    0.62
  C301                 CHANNEL     0.780     0  05:08      0.78    0.26    0.36
  C302                 CHANNEL     0.654     0  04:15      0.44    0.18    0.53
  C303                 CHANNEL     0.440     0  04:35      0.30    0.35    0.74
  C353                 CONDUIT     0.010     0  04:15      0.94    0.00    0.05
  
  
  ***************************
  Flow Classification Summary
  ***************************
  
  -------------------------------------------------------------------------------------
                      Adjusted    ---------- Fraction of Time in Flow Class ---------- 
                       /Actual         Up    Down  Sub   Sup   Up    Down  Norm  Inlet 
  Conduit               Length    Dry  Dry   Dry   Crit  Crit  Crit  Crit  Ltd   Ctrl  
  -------------------------------------------------------------------------------------
  FID1123                 1.00   0.11  0.00  0.00  0.47  0.00  0.00  0.42  0.34  0.00
  FID1139                 1.00   0.12  0.00  0.00  0.17  0.00  0.00  0.72  0.11  0.00
  FID1148                 1.00   0.11  0.00  0.00  0.65  0.00  0.00  0.24  0.00  0.00
  FID1149                 1.00   0.11  0.00  0.00  0.70  0.00  0.00  0.19  0.53  0.00
  FID3364                 1.00   0.11  0.00  0.00  0.78  0.00  0.00  0.11  0.59  0.00
  FID3671                 1.00   0.13  0.00  0.00  0.00  0.00  0.00  0.87  0.00  0.00
  FID3672                 1.00   0.12  0.00  0.00  0.00  0.00  0.00  0.88  0.00  0.00
  FID3762                 1.00   0.02  0.10  0.00  0.88  0.00  0.00  0.00  0.68  0.00
  FID3765                 1.00   0.02  0.10  0.00  0.88  0.00  0.00  0.00  0.68  0.00
  FID4112                 1.00   0.11  0.00  0.00  0.00  0.00  0.00  0.89  0.00  0.00
  FID4186                 1.00   0.14  0.00  0.00  0.59  0.05  0.00  0.22  0.21  0.00
  FID4187                 1.00   0.17  0.00  0.00  0.00  0.00  0.00  0.83  0.00  0.00
  FID4201                 1.00   0.11  0.00  0.00  0.85  0.00  0.00  0.04  0.57  0.00
  FID4202                 1.00   0.12  0.00  0.00  0.00  0.00  0.00  0.88  0.00  0.00
  FID4203                 1.00   0.12  0.88  0.00  0.00  0.00  0.00  0.00  0.00  0.00
  FID4299                 1.00   0.16  0.00  0.00  0.00  0.00  0.00  0.84  0.00  0.00
  FID4372                 1.00   0.11  0.01  0.00  0.88  0.00  0.00  0.00  0.68  0.00
  FID4498                 1.00   0.12  0.00  0.00  0.75  0.00  0.00  0.12  0.57  0.00
  FID4806                 1.00   0.12  0.00  0.00  0.00  0.00  0.00  0.88  0.00  0.00
  FID4807                 1.00   0.18  0.00  0.00  0.00  0.00  0.00  0.82  0.00  0.00
  FID4882                 1.00   0.27  0.73  0.00  0.00  0.00  0.00  0.00  0.00  0.00
  FID4884                 1.00   0.11  0.00  0.00  0.24  0.01  0.00  0.65  0.18  0.00
  FID4914                 1.00   0.11  0.00  0.00  0.81  0.00  0.00  0.07  0.62  0.00
  FID4915                 1.00   0.16  0.01  0.00  0.81  0.00  0.00  0.03  0.61  0.00
  FID4916                 1.00   0.19  0.00  0.00  0.58  0.00  0.00  0.23  0.00  0.00
  FID4917                 1.00   0.21  0.12  0.00  0.60  0.00  0.00  0.07  0.54  0.00
  FID5307                 1.00   0.13  0.00  0.00  0.82  0.00  0.00  0.05  0.50  0.00
  FID5308                 1.00   0.16  0.00  0.00  0.00  0.00  0.00  0.84  0.00  0.00
  FID5312                 1.00   0.17  0.00  0.00  0.00  0.00  0.00  0.83  0.00  0.00
  FID5865                 1.00   0.11  0.00  0.00  0.64  0.05  0.00  0.20  0.52  0.00
  C9                      1.00   0.00  0.00  0.00  1.00  0.00  0.00  0.00  0.00  0.00
  C12                     1.00   0.00  0.00  0.00  1.00  0.00  0.00  0.00  0.00  0.00
  C13                     1.00   0.00  0.00  0.00  1.00  0.00  0.00  0.00  0.00  0.00
  C14                     1.00   0.00  0.00  0.00  1.00  0.00  0.00  0.00  0.00  0.00
  C52                     1.00   0.06  0.06  0.00  0.88  0.00  0.00  0.00  0.68  0.00
  C130                    1.00   0.12  0.00  0.00  0.67  0.00  0.00  0.21  0.00  0.00
  C131                    1.00   0.16  0.00  0.00  0.67  0.00  0.00  0.16  0.51  0.00
  C139                    1.00   0.11  0.89  0.00  0.00  0.00  0.00  0.00  0.00  0.00
  C191                    1.00   0.00  0.00  0.00  1.00  0.00  0.00  0.00  0.00  0.00
  C193                    1.00   0.01  0.00  0.00  0.99  0.00  0.00  0.00  0.00  0.00
  C194                    1.00   0.01  0.00  0.00  0.99  0.00  0.00  0.00  0.00  0.00
  C195                    1.00   0.01  0.00  0.00  0.99  0.00  0.00  0.00  0.00  0.00
  C196                    1.00   0.00  0.00  0.00  1.00  0.00  0.00  0.00  0.00  0.00
  C197                    1.00   0.01  0.00  0.00  0.99  0.00  0.00  0.00  0.00  0.00
  C198                    1.00   0.01  0.00  0.00  0.99  0.00  0.00  0.00  0.00  0.00
  C199                    1.00   0.01  0.00  0.00  0.99  0.00  0.00  0.00  0.00  0.00
  C200                    1.00   0.01  0.00  0.00  0.99  0.00  0.00  0.00  0.00  0.00
  C201                    1.00   0.02  0.00  0.00  0.98  0.00  0.00  0.00  0.00  0.00
  C202                    1.00   0.02  0.00  0.00  0.98  0.00  0.00  0.00  0.00  0.00
  C203                    1.00   0.02  0.00  0.00  0.98  0.00  0.00  0.00  0.00  0.00
  C204                    1.00   0.02  0.00  0.00  0.98  0.00  0.00  0.00  0.00  0.00
  C205                    1.00   0.02  0.00  0.00  0.98  0.00  0.00  0.00  0.00  0.00
  C206                    1.00   0.03  0.00  0.00  0.97  0.00  0.00  0.00  0.00  0.00
  C207                    1.00   0.03  0.00  0.00  0.97  0.00  0.00  0.00  0.00  0.00
  C208                    1.00   0.03  0.00  0.00  0.97  0.00  0.00  0.00  0.00  0.00
  C209                    1.00   0.03  0.00  0.00  0.97  0.00  0.00  0.00  0.00  0.00
  C210                    1.00   0.03  0.00  0.00  0.97  0.00  0.00  0.00  0.00  0.00
  C211                    1.00   0.03  0.00  0.00  0.97  0.00  0.00  0.00  0.00  0.00
  C212                    1.00   0.04  0.00  0.00  0.96  0.00  0.00  0.00  0.00  0.00
  C213                    1.00   0.04  0.00  0.00  0.96  0.00  0.00  0.00  0.00  0.00
  C214                    1.00   0.04  0.00  0.00  0.96  0.00  0.00  0.00  0.00  0.00
  C215                    1.00   0.04  0.00  0.00  0.96  0.00  0.00  0.00  0.02  0.00
  C216                    1.00   0.04  0.00  0.00  0.96  0.00  0.00  0.00  0.00  0.00
  C217                    1.00   0.04  0.00  0.00  0.96  0.00  0.00  0.00  0.00  0.00
  C218                    1.00   0.04  0.00  0.00  0.96  0.00  0.00  0.00  0.00  0.00
  C219                    1.00   0.05  0.00  0.00  0.95  0.00  0.00  0.00  0.00  0.00
  C220                    1.00   0.06  0.00  0.00  0.94  0.00  0.00  0.00  0.00  0.00
  C221                    1.00   0.06  0.00  0.00  0.94  0.00  0.00  0.00  0.00  0.00
  C222                    1.00   0.06  0.00  0.00  0.94  0.00  0.00  0.00  0.00  0.00
  C223                    1.00   0.06  0.00  0.00  0.94  0.00  0.00  0.00  0.01  0.00
  C224                    1.00   0.07  0.00  0.00  0.93  0.00  0.00  0.00  0.00  0.00
  C225                    1.00   0.07  0.00  0.00  0.93  0.00  0.00  0.00  0.00  0.00
  C226                    1.00   0.07  0.00  0.00  0.93  0.00  0.00  0.00  0.00  0.00
  C227                    1.00   0.07  0.00  0.00  0.93  0.00  0.00  0.00  0.00  0.00
  C228                    1.00   0.08  0.00  0.00  0.92  0.00  0.00  0.00  0.00  0.00
  C229                    1.00   0.08  0.00  0.00  0.92  0.00  0.00  0.00  0.00  0.00
  C230                    1.00   0.09  0.00  0.00  0.91  0.00  0.00  0.00  0.00  0.00
  C231                    1.00   0.09  0.00  0.00  0.91  0.00  0.00  0.00  0.00  0.00
  C232                    1.00   0.09  0.00  0.00  0.91  0.00  0.00  0.00  0.00  0.00
  C233                    1.00   0.10  0.00  0.00  0.90  0.00  0.00  0.00  0.02  0.00
  C234                    1.00   0.10  0.00  0.00  0.90  0.00  0.00  0.00  0.00  0.00
  C235                    1.00   0.10  0.00  0.00  0.90  0.00  0.00  0.00  0.00  0.00
  C236                    1.00   0.11  0.00  0.00  0.89  0.00  0.00  0.00  0.00  0.00
  C237                    1.00   0.11  0.00  0.00  0.89  0.00  0.00  0.00  0.00  0.00
  C238                    1.00   0.11  0.00  0.00  0.89  0.00  0.00  0.00  0.00  0.00
  C239                    1.00   0.11  0.00  0.00  0.89  0.00  0.00  0.00  0.00  0.00
  C240                    1.00   0.12  0.00  0.00  0.88  0.00  0.00  0.00  0.00  0.00
  C241                    1.00   0.12  0.00  0.00  0.88  0.00  0.00  0.00  0.00  0.00
  C242                    1.00   0.12  0.00  0.00  0.88  0.00  0.00  0.00  0.00  0.00
  C243                    1.00   0.12  0.01  0.00  0.88  0.00  0.00  0.00  0.00  0.00
  C244                    1.00   0.12  0.00  0.00  0.88  0.00  0.00  0.00  0.00  0.00
  C245                    1.00   0.12  0.01  0.00  0.87  0.00  0.00  0.00  0.02  0.00
  C246                    1.00   0.11  0.01  0.00  0.88  0.00  0.00  0.00  0.00  0.00
  C247                    1.00   0.11  0.00  0.00  0.89  0.00  0.00  0.00  0.00  0.00
  C248                    1.00   0.13  0.00  0.00  0.87  0.00  0.00  0.00  0.00  0.00
  C249                    1.00   0.11  0.08  0.00  0.82  0.00  0.00  0.00  0.02  0.00
  C250                    1.00   0.11  0.00  0.00  0.89  0.00  0.00  0.00  0.06  0.00
  C251                    1.00   0.11  0.00  0.00  0.89  0.00  0.00  0.00  0.02  0.00
  C252                    1.00   0.11  0.00  0.00  0.89  0.00  0.00  0.00  0.03  0.00
  C253                    1.00   0.11  0.00  0.00  0.89  0.00  0.00  0.00  0.01  0.00
  C254                    1.00   0.12  0.00  0.00  0.88  0.00  0.00  0.00  0.00  0.00
  C255                    1.00   0.12  0.03  0.00  0.85  0.00  0.00  0.00  0.07  0.00
  C256                    1.00   0.11  0.02  0.00  0.88  0.00  0.00  0.00  0.04  0.00
  C257                    1.00   0.11  0.00  0.00  0.89  0.01  0.00  0.00  0.03  0.00
  C258                    1.00   0.11  0.01  0.00  0.89  0.00  0.00  0.00  0.02  0.00
  C259                    1.00   0.11  0.00  0.00  0.89  0.00  0.00  0.00  0.12  0.00
  C260                    1.00   0.11  0.00  0.00  0.89  0.00  0.00  0.00  0.01  0.00
  C261                    1.00   0.11  0.00  0.00  0.89  0.00  0.00  0.00  0.03  0.00
  C262                    1.00   0.11  0.00  0.00  0.89  0.00  0.00  0.00  0.03  0.00
  C263                    1.00   0.11  0.00  0.00  0.89  0.00  0.00  0.00  0.00  0.00
  C264                    1.00   0.11  0.00  0.00  0.89  0.00  0.00  0.00  0.02  0.00
  C265                    1.00   0.11  0.01  0.00  0.88  0.00  0.00  0.00  0.00  0.00
  C266                    1.00   0.12  0.00  0.00  0.88  0.00  0.00  0.00  0.00  0.00
  C267                    1.00   0.19  0.00  0.00  0.81  0.00  0.00  0.00  0.00  0.00
  C268                    1.00   0.11  0.10  0.00  0.78  0.00  0.00  0.00  0.04  0.00
  C269                    1.00   0.11  0.00  0.00  0.89  0.00  0.00  0.00  0.00  0.00
  C270                    1.00   0.11  0.02  0.00  0.88  0.00  0.00  0.00  0.05  0.00
  C271                    1.00   0.11  0.00  0.00  0.89  0.00  0.00  0.00  0.01  0.00
  C272                    1.00   0.11  0.00  0.00  0.89  0.00  0.00  0.00  0.00  0.00
  C273                    1.00   0.11  0.00  0.00  0.89  0.00  0.00  0.00  0.03  0.00
  C274                    1.00   0.11  0.00  0.00  0.89  0.00  0.00  0.00  0.00  0.00
  C275                    1.00   0.12  0.00  0.00  0.88  0.00  0.00  0.00  0.00  0.00
  C276                    1.00   0.14  0.00  0.00  0.86  0.00  0.00  0.00  0.00  0.00
  C277                    1.00   0.17  0.00  0.00  0.83  0.00  0.00  0.00  0.00  0.00
  C278                    1.00   0.19  0.00  0.00  0.81  0.00  0.00  0.00  0.00  0.00
  C279                    1.00   0.12  0.09  0.00  0.80  0.00  0.00  0.00  0.01  0.00
  C280                    1.00   0.12  0.00  0.00  0.88  0.00  0.00  0.00  0.04  0.00
  C281                    1.00   0.12  0.00  0.00  0.88  0.00  0.00  0.00  0.04  0.00
  C282                    1.00   0.12  0.00  0.00  0.88  0.00  0.00  0.00  0.04  0.00
  C283                    1.00   0.12  0.00  0.00  0.88  0.00  0.00  0.00  0.02  0.00
  C284                    1.00   0.13  0.00  0.00  0.87  0.00  0.00  0.00  0.02  0.00
  C285                    1.00   0.14  0.00  0.00  0.86  0.00  0.00  0.00  0.01  0.00
  C286                    1.00   0.17  0.00  0.00  0.83  0.00  0.00  0.00  0.02  0.00
  C287                    1.00   0.12  0.08  0.00  0.81  0.00  0.00  0.00  0.01  0.00
  C288                    1.00   0.12  0.00  0.00  0.88  0.00  0.00  0.00  0.01  0.00
  C289                    1.00   0.22  0.00  0.00  0.78  0.00  0.00  0.00  0.00  0.00
  C290                    1.00   0.11  0.13  0.00  0.76  0.00  0.00  0.00  0.04  0.00
  C291                    1.00   0.11  0.00  0.00  0.89  0.00  0.00  0.00  0.07  0.00
  C292                    1.00   0.12  0.00  0.00  0.88  0.00  0.00  0.00  0.02  0.00
  C293                    1.00   0.12  0.00  0.00  0.88  0.00  0.00  0.00  0.02  0.00
  C294                    1.00   0.13  0.00  0.00  0.87  0.00  0.00  0.00  0.00  0.00
  C295                    1.00   0.15  0.00  0.00  0.85  0.00  0.00  0.00  0.02  0.00
  C296                    1.00   0.15  0.02  0.00  0.83  0.00  0.00  0.00  0.01  0.00
  C297                    1.00   0.15  0.00  0.00  0.85  0.00  0.00  0.00  0.01  0.00
  C298                    1.00   0.21  0.00  0.00  0.79  0.00  0.00  0.00  0.01  0.00
  C299                    1.00   0.22  0.00  0.00  0.78  0.00  0.00  0.00  0.02  0.00
  C300                    1.00   0.23  0.00  0.00  0.77  0.00  0.00  0.00  0.06  0.00
  C301                    1.00   0.24  0.00  0.00  0.76  0.00  0.00  0.00  0.00  0.00
  C302                    1.00   0.00  0.00  0.00  1.00  0.00  0.00  0.00  0.00  0.00
  C303                    1.00   0.00  0.00  0.00  1.00  0.00  0.00  0.00  0.00  0.00
  C353                    1.00   0.12  0.00  0.00  0.00  0.00  0.00  0.88  0.00  0.00
  
  
  *************************
  Conduit Surcharge Summary
  *************************
  
  ----------------------------------------------------------------------------
                                                           Hours        Hours 
                         --------- Hours Full --------   Above Full   Capacity
  Conduit                Both Ends  Upstream  Dnstream   Normal Flow   Limited
  ----------------------------------------------------------------------------
  FID4498                     0.01      0.01      1.56      0.01         0.01
  FID4914                     0.01      0.01      5.31      0.01         0.01
  C199                        0.01      0.01      0.01      8.46         0.01
  C200                        0.01      0.01      0.01      8.42         0.01
  
  
  ***************************
  Link Pollutant Load Summary
  ***************************
  
  --------------------------------------------------------------
                                 TSS            TP           TDP
  Link                            kg            kg            kg
  --------------------------------------------------------------
  FID1123                     12.922         0.009         0.005
  FID1139                    105.503         0.035         0.021
  FID1148                    160.567         0.066         0.043
  FID1149                    156.915         0.066         0.043
  FID3364                    181.979         0.076         0.051
  FID3671                      7.279         0.008         0.004
  FID3672                     37.694         0.011         0.008
  FID3762                     61.887         0.027         0.025
  FID3765                    164.572         0.077         0.053
  FID4112                     65.633         0.062         0.023
  FID4186                      9.498         0.010         0.006
  FID4187                      6.682         0.010         0.006
  FID4201                     33.561         0.048         0.017
  FID4202                     29.610         0.048         0.017
  FID4203                      0.000         0.000         0.000
  FID4299                      3.408         0.005         0.002
  FID4372                    562.452         0.951         0.801
  FID4498                    294.670         0.028         0.121
  FID4806                   1114.760         0.179         1.543
  FID4807                      0.000         0.000         0.000
  FID4882                      0.000         0.000         0.000
  FID4884                     62.502         0.025         0.018
  FID4914                     12.535         0.004         0.005
  FID4915                      1.357         0.001         0.000
  FID4916                      0.191         0.001         0.000
  FID4917                      0.085         0.001         0.000
  FID5307                     11.360         0.004         0.003
  FID5308                      3.695         0.002         0.001
  FID5312                      7.236         0.004         0.003
  FID5865                    695.510         0.865         0.605
  C9                         147.084         1.038         1.283
  C12                        144.834         1.016         1.254
  C13                        158.489         1.007         1.247
  C14                        103.887         0.661         0.822
  C52                        245.198         0.080         0.058
  C130                        18.099         0.008         0.005
  C131                        16.805         0.008         0.005
  C139                         0.000         0.000         0.000
  C191                       147.881         0.670         0.823
  C193                       145.472         0.645         0.789
  C194                       144.323         0.638         0.784
  C195                       143.977         0.636         0.781
  C196                       141.178         0.668         0.825
  C197                       308.161         0.709         0.829
  C198                       369.626         0.733         0.850
  C199                       369.315         0.728         0.844
  C200                       368.709         0.724         0.839
  C201                       368.362         0.717         0.829
  C202                       371.359         0.712         0.823
  C203                       370.932         0.707         0.817
  C204                       370.272         0.705         0.816
  C205                       513.851         0.788         0.846
  C206                       578.963         0.847         0.865
  C207                       579.293         0.841         0.856
  C208                       584.760         0.835         0.847
  C209                       583.203         0.831         0.844
  C210                       582.953         0.829         0.840
  C211                       582.523         0.826         0.838
  C212                       771.195         0.999         0.904
  C213                       773.908         1.000         0.902
  C214                       773.928         0.998         0.898
  C215                       793.875         0.986         0.865
  C216                       786.721         0.976         0.861
  C217                       816.141         1.020         0.873
  C218                      1060.630         1.097         0.926
  C219                      1061.282         1.093         0.918
  C220                      1061.423         1.086         0.909
  C221                      1074.253         1.081         0.903
  C222                      1193.397         1.114         0.925
  C223                      1336.785         1.166         0.954
  C224                      1341.408         1.159         0.940
  C225                      1347.911         1.151         0.931
  C226                      1347.444         1.145         0.922
  C227                      1367.984         1.135         0.881
  C228                      1368.729         1.128         0.880
  C229                      1476.015         1.158         0.908
  C230                      1478.807         1.161         0.907
  C231                      1482.742         1.153         0.891
  C232                      1479.898         1.146         0.881
  C233                      1497.592         1.128         0.850
  C234                      1494.244         1.127         0.850
  C235                      1507.279         1.133         0.852
  C236                      2068.755         2.082         1.651
  C237                      2078.176         2.085         1.647
  C238                      2197.212         2.099         1.661
  C239                      2190.662         2.092         1.654
  C240                      2186.837         2.088         1.652
  C241                      2190.318         2.090         1.653
  C242                      2200.011         2.094         1.653
  C243                      2275.626         2.122         1.641
  C244                      2241.773         2.102         1.639
  C245                      2251.442         2.101         1.635
  C246                      3591.395         2.350         3.641
  C247                      2963.030         2.276         3.130
  C248                      2984.306         2.283         3.178
  C249                      2863.867         2.256         3.004
  C250                      2869.677         2.255         2.983
  C251                      2921.343         2.260         2.989
  C252                      3027.088         2.326         3.025
  C253                      3079.176         2.340         3.083
  C254                      3062.539         2.341         3.108
  C255                      3031.151         2.328         3.073
  C256                      3274.976         2.343         3.152
  C257                      3139.638         2.330         3.091
  C258                      3171.639         2.330         3.105
  C259                      3159.594         2.341         3.143
  C260                      3078.095         2.324         3.060
  C261                      3133.644         2.349         3.088
  C262                      3228.925         2.415         3.176
  C263                      3135.670         2.549         3.098
  C264                      3404.552         2.788         3.111
  C265                      3755.774         3.110         3.631
  C266                      3838.010         3.153         3.678
  C267                      3768.217         3.121         3.663
  C268                      3770.015         3.143         3.715
  C269                      3592.456         3.051         3.605
  C270                      3666.167         3.094         3.664
  C271                      3618.075         3.048         3.607
  C272                      3615.258         3.040         3.596
  C273                      3778.401         3.144         3.692
  C274                      3744.841         3.131         3.677
  C275                      3716.094         3.119         3.664
  C276                      3699.504         3.114         3.656
  C277                      3677.383         3.102         3.642
  C278                      3670.846         3.099         3.638
  C279                      3673.246         3.102         3.644
  C280                      3684.194         3.093         3.629
  C281                      3740.569         3.118         3.641
  C282                      3749.910         3.126         3.650
  C283                      3761.971         3.132         3.653
  C284                      3767.630         3.134         3.655
  C285                      3774.051         3.140         3.662
  C286                      3771.266         3.143         3.667
  C287                      3765.222         3.142         3.666
  C288                      3750.637         3.134         3.657
  C289                      3743.279         3.130         3.654
  C290                      3740.056         3.129         3.653
  C291                      3722.571         3.114         3.636
  C292                      3854.276         3.154         3.675
  C293                      3842.819         3.149         3.669
  C294                      3847.325         3.151         3.672
  C295                      3822.580         3.139         3.658
  C296                      3825.397         3.140         3.660
  C297                      3835.143         3.147         3.668
  C298                      3831.103         3.147         3.669
  C299                      3809.987         3.138         3.658
  C300                      3825.868         3.145         3.666
  C301                      3783.588         3.127         3.647
  C302                       146.335         1.031         1.275
  C303                       146.937         0.660         0.809
  C353                       115.725         0.025         0.021
  

  Analysis begun on:  Tue Oct 10 20:12:04 2017
  Analysis ended on:  Tue Oct 10 20:12:19 2017
  Total elapsed time: 00:00:15