
  EPA STORM WATER MANAGEMENT MODEL - VERSION 5.1 (Build 5.1.010)
  --------------------------------------------------------------

  WARNING 04: minimum elevation drop used for Conduit C199
  WARNING 04: minimum elevation drop used for Conduit C200
  WARNING 02: maximum depth increased for Node FID1955
  WARNING 02: maximum depth increased for Node FID1960
  WARNING 02: maximum depth increased for Node FID1965
  WARNING 02: maximum depth increased for Node FID1968
  WARNING 02: maximum depth increased for Node FID2244
  WARNING 02: maximum depth increased for Node FID2442
  WARNING 02: maximum depth increased for Node FID2446
  WARNING 02: maximum depth increased for Node FID5504
  WARNING 02: maximum depth increased for Node FID5527
  WARNING 02: maximum depth increased for Node AFID6926
  WARNING 02: maximum depth increased for Node AFID7376
  
  *********************************************************
  NOTE: The summary statistics displayed in this report are
  based on results found at every computational time step,  
  not just on results from each reporting time step.
  *********************************************************
  
  ****************
  Analysis Options
  ****************
  Flow Units ............... CMS
  Process Models:
    Rainfall/Runoff ........ YES
    RDII ................... NO
    Snowmelt ............... NO
    Groundwater ............ NO
    Flow Routing ........... YES
    Ponding Allowed ........ YES
    Water Quality .......... YES
  Infiltration Method ...... GREEN_AMPT
  Flow Routing Method ...... DYNWAVE
  Starting Date ............ MAY-06-2016 15:00:00
  Ending Date .............. MAY-07-2016 00:00:00
  Antecedent Dry Days ...... 0.0
  Report Time Step ......... 00:01:00
  Wet Time Step ............ 00:01:00
  Dry Time Step ............ 01:00:00
  Routing Time Step ........ 5.00 sec
  Variable Time Step ....... YES
  Maximum Trials ........... 8
  Number of Threads ........ 3
  Head Tolerance ........... 0.001500 m
  
  
  **************************        Volume         Depth
  Runoff Quantity Continuity     hectare-m            mm
  **************************     ---------       -------
  Total Precipitation ......         2.583         6.709
  Evaporation Loss .........         0.000         0.000
  Infiltration Loss ........         1.311         3.405
  Surface Runoff ...........         0.937         2.434
  Final Storage ............         0.336         0.872
  Continuity Error (%) .....        -0.033
  
  
  **************************           TSS            TP           TDP
  Runoff Quality Continuity             kg            kg            kg
  **************************    ----------    ----------    ----------
  Initial Buildup ..........         0.000         0.000         0.000
  Surface Buildup ..........      8002.300         5.911         9.414
  Wet Deposition ...........         0.000         0.000         0.000
  Sweeping Removal .........         0.000         0.000         0.000
  Infiltration Loss ........         0.000         0.000         0.000
  BMP Removal ..............         0.472         0.000         0.001
  Surface Runoff ...........      4719.131         3.551         5.209
  Remaining Buildup ........      3282.697         2.360         4.204
  Continuity Error (%) .....         0.000         0.000         0.000
  
  
  **************************        Volume        Volume
  Flow Routing Continuity        hectare-m      10^6 ltr
  **************************     ---------     ---------
  Dry Weather Inflow .......         0.000         0.000
  Wet Weather Inflow .......         0.937         9.371
  Groundwater Inflow .......         0.000         0.000
  RDII Inflow ..............         0.000         0.000
  External Inflow ..........         1.384        13.843
  External Outflow .........         1.791        17.906
  Flooding Loss ............         0.000         0.000
  Evaporation Loss .........         0.000         0.000
  Exfiltration Loss ........         0.000         0.000
  Initial Stored Volume ....         0.000         0.000
  Final Stored Volume ......         0.536         5.363
  Continuity Error (%) .....        -0.240
  
  
  **************************           TSS            TP           TDP
  Quality Routing Continuity            kg            kg            kg
  **************************    ----------    ----------    ----------
  Dry Weather Inflow .......         0.000         0.000         0.000
  Wet Weather Inflow .......      4668.586         3.548         5.207
  Groundwater Inflow .......         0.000         0.000         0.000
  RDII Inflow ..............         0.000         0.000         0.000
  External Inflow ..........       137.985         1.039         1.284
  External Outflow .........      4687.221         4.223         6.040
  Flooding Loss ............         0.000         0.000         0.000
  Exfiltration Loss ........         0.000         0.000         0.000
  Mass Reacted .............         0.000         0.000         0.000
  Initial Stored Mass ......         0.000         0.000         0.000
  Final Stored Mass ........        39.357         0.351         0.495
  Continuity Error (%) .....         1.664         0.277        -0.674
  
  
  *************************
  Highest Continuity Errors
  *************************
  Node FID2824 (1.75%)
  Node FID2827 (1.64%)
  Node J72 (1.34%)
  Node FID2449 (1.24%)
  Node J81 (1.21%)
  
  
  ***************************
  Time-Step Critical Elements
  ***************************
  Link C241 (92.62%)
  Link C14 (6.55%)
  
  
  ********************************
  Highest Flow Instability Indexes
  ********************************
  All links are stable.
  
  
  *************************
  Routing Time Step Summary
  *************************
  Minimum Time Step           :     0.27 sec
  Average Time Step           :     0.93 sec
  Maximum Time Step           :     5.00 sec
  Percent in Steady State     :     0.00
  Average Iterations per Step :     2.00
  Percent Not Converging      :     0.00
  
  
  ***************************
  Subcatchment Runoff Summary
  ***************************
  
  --------------------------------------------------------------------------------------------------------
                            Total      Total      Total      Total      Total       Total     Peak  Runoff
                           Precip      Runon       Evap      Infil     Runoff      Runoff   Runoff   Coeff
  Subcatchment                 mm         mm         mm         mm         mm    10^6 ltr      CMS
  --------------------------------------------------------------------------------------------------------
  S0                         5.84       0.00       0.00       5.06       0.57        0.00     0.00   0.097
  S1                         5.84       0.00       0.00       2.64       2.32        0.23     0.07   0.397
  S2                         6.35       0.00       0.00       2.01       3.24        0.56     0.18   0.510
  S3                         5.84       0.00       0.00       3.85       1.45        0.05     0.04   0.249
  S4                         5.84       0.00       0.00       2.84       2.19        0.22     0.14   0.374
  S6                         6.35       0.00       0.00       1.11       3.91        0.07     0.02   0.615
  S7                         6.35       0.00       0.00       1.50       3.23        1.26     0.37   0.508
  S8                         6.35       0.00       0.00       1.11       3.93        0.00     0.00   0.618
  S9                         6.35       0.00       0.00       1.82       3.39        0.00     0.00   0.535
  S10                        6.35       0.00       0.00       1.94       3.31        0.01     0.00   0.521
  S11                        6.35       0.00       0.00       5.01       1.01        0.00     0.00   0.159
  S12                        6.35       0.00       0.00       2.16       3.14        0.00     0.00   0.495
  S13                        6.35       0.00       0.00       2.41       2.94        0.22     0.07   0.462
  S14                        6.35       0.00       0.00       4.47       1.41        0.01     0.00   0.222
  S16                        6.35       0.00       0.00       1.37       1.86        0.10     0.02   0.292
  S17                        6.35       0.00       0.00       2.11       3.15        0.61     0.19   0.496
  S18                        6.35       0.00       0.00       1.46       3.67        0.00     0.00   0.578
  S19                        6.35       0.00       0.00       3.50       2.13        0.05     0.02   0.335
  S20                        6.35       0.00       0.00       2.27       3.06        0.02     0.01   0.482
  S21                        6.35       0.00       0.00       4.51       1.64        0.88     0.21   0.258
  S22                        6.35       0.00       0.00       1.76       3.44        0.00     0.00   0.542
  S23                        6.35       0.00       0.00       3.86       1.87        0.03     0.01   0.294
  S24                        6.35       0.00       0.00       3.65       2.02        0.04     0.01   0.318
  S25                        6.35       0.00       0.00       2.48       2.89        0.04     0.01   0.456
  S27                        6.35       0.00       0.00       2.82       2.65        0.01     0.01   0.417
  S28                        5.84       0.00       0.00       5.83       0.01        0.00     0.00   0.001
  S29                        5.84       0.00       0.00       5.80       0.03        0.00     0.00   0.005
  S30                        6.35       0.00       0.00       6.33       0.02        0.00     0.00   0.003
  S31                        6.35       0.00       0.00       6.34       0.01        0.00     0.00   0.001
  S32                        6.35       0.00       0.00       4.70       1.24        0.01     0.00   0.196
  S33                        6.35       0.00       0.00       1.59       3.57        0.04     0.01   0.562
  S34                        6.35       0.00       0.00       4.51       0.88        0.31     0.11   0.138
  S35                        6.35       0.00       0.00       3.63       2.04        0.01     0.00   0.321
  S36                        6.35       0.00       0.00       5.07       0.97        0.01     0.01   0.152
  S37                        6.35       0.00       0.00       1.90       3.33        0.02     0.01   0.525
  S39                        6.35       0.00       0.00       3.78       1.92        0.28     0.09   0.303
  S40                        6.35       0.00       0.00       4.44       1.43        0.03     0.01   0.225
  S41                        6.35       0.00       0.00       2.24       3.07        0.42     0.14   0.484
  S42                        6.35       0.00       0.00       2.63       2.78        0.28     0.09   0.437
  S43                        6.35       0.00       0.00       4.76       1.19        0.02     0.01   0.188
  S44                        6.35       0.00       0.00       2.70       2.72        0.61     0.19   0.428
  S45                        8.13       0.00       0.00       4.58       2.89        0.00     0.00   0.355
  S47                        8.13       0.00       0.00       3.51       3.73        0.16     0.13   0.459
  S48                        8.13       0.00       0.00       4.16       3.23        0.01     0.01   0.398
  S49                        8.13       0.00       0.00       3.67       3.58        0.67     0.37   0.441
  S51                        8.13       0.00       0.00       6.99       0.93        0.01     0.01   0.115
  S52                        8.13       0.00       0.00       3.98       3.35        0.22     0.17   0.412
  S53                        8.13       0.00       0.00       3.83       3.45        0.48     0.29   0.425
  S54                        8.13       0.00       0.00       4.88       2.61        0.25     0.07   0.321
  S55                        8.13       0.00       0.00       4.00       3.31        0.54     0.16   0.408
  S56                        8.13       0.00       0.00       5.90       1.80        0.00     0.00   0.221
  S57                        8.13       0.00       0.00       3.47       3.75        0.04     0.01   0.461
  S58                        8.13       0.00       0.00       4.33       3.05        0.12     0.04   0.376
  S59                        8.13       0.00       0.00       7.00       0.90        0.02     0.01   0.111
  S60                        8.13       0.00       0.00       5.80       1.87        0.05     0.01   0.230
  S61                        8.13       0.00       0.00       7.16       0.78        0.01     0.00   0.096
  S62                        8.13       0.00       0.00       6.67       1.18        0.03     0.02   0.145
  S63                        6.35       0.00       0.00       5.35       0.75        0.01     0.01   0.119
  S64                        6.35       0.00       0.00       2.90       2.59        0.04     0.02   0.408
  S65                        6.35       0.00       0.00       4.24       1.57        0.26     0.08   0.247
  
  
  ****************************
  Subcatchment Washoff Summary
  ****************************
  
  --------------------------------------------------------------
                                 TSS            TP           TDP
  Subcatchment                    kg            kg            kg
  --------------------------------------------------------------
  S0                           0.368         0.000         0.000
  S1                          17.384         0.017         0.140
  S2                          93.755         0.095         0.247
  S3                          11.763         0.014         0.029
  S4                          35.364         0.049         0.139
  S6                           2.200         0.002         0.019
  S7                         255.748         0.711         0.247
  S8                           0.288         0.000         0.001
  S9                           0.327         0.001         0.001
  S10                          3.232         0.005         0.006
  S11                          0.348         0.001         0.001
  S12                          0.183         0.000         0.000
  S13                         13.441         0.014         0.077
  S14                         10.424         0.006         0.011
  S16                         71.642         0.075         0.090
  S17                        119.220         0.105         0.289
  S18                          0.340         0.001         0.001
  S19                         31.330         0.015         0.043
  S20                          7.891         0.009         0.011
  S21                       1807.354         1.090         0.719
  S22                          2.247         0.003         0.004
  S23                         28.361         0.003         0.024
  S24                         10.563         0.013         0.026
  S25                         19.325         0.003         0.021
  S27                          8.683         0.008         0.011
  S28                          0.000         0.000         0.000
  S29                          0.000         0.000         0.000
  S30                          0.000         0.000         0.000
  S31                          0.000         0.000         0.000
  S32                          5.973         0.000         0.007
  S33                         11.640         0.015         0.023
  S34                        557.905         0.223         0.279
  S35                          5.232         0.004         0.007
  S36                         16.159         0.000         0.016
  S37                          8.533         0.006         0.011
  S39                        151.705         0.072         0.227
  S40                         36.023         0.005         0.035
  S41                         79.879         0.100         0.201
  S42                         73.941         0.072         0.176
  S43                         29.248         0.001         0.028
  S44                        179.072         0.144         0.378
  S45                          0.680         0.001         0.001
  S47                         43.389         0.039         0.068
  S48                          3.757         0.005         0.006
  S49                        169.691         0.124         0.303
  S51                         14.961         0.001         0.013
  S52                         53.112         0.051         0.108
  S53                         74.553         0.096         0.204
  S54                        123.894         0.064         0.168
  S55                        170.482         0.101         0.286
  S56                          0.021         0.000         0.000
  S57                         11.031         0.001         0.016
  S58                         33.035         0.037         0.072
  S59                         20.962         0.018         0.028
  S60                         44.735         0.005         0.039
  S61                         12.920         0.004         0.010
  S62                         39.843         0.002         0.034
  S63                         16.882         0.000         0.013
  S64                         23.503         0.002         0.020
  S65                        154.591         0.116         0.277
  --------------------------------------------------------------
  System                    4719.131         3.551         5.209
  
  
  ******************
  Node Depth Summary
  ******************
  
  ---------------------------------------------------------------------------------
                                 Average  Maximum  Maximum  Time of Max    Reported
                                   Depth    Depth      HGL   Occurrence   Max Depth
  Node                 Type       Meters   Meters   Meters  days hr:min      Meters
  ---------------------------------------------------------------------------------
  FID1936              JUNCTION     0.15     0.38  1376.68     0  04:05        0.12
  FID1955              JUNCTION     0.16     0.33  1376.25     0  04:15        0.10
  FID1960              JUNCTION     0.15     0.27  1376.13     0  04:15        0.08
  FID1965              JUNCTION     0.14     0.26  1376.56     0  04:15        0.08
  FID1968              JUNCTION     0.13     0.21  1376.61     0  04:15        0.06
  FID2239              JUNCTION     0.14     0.29  1374.80     0  04:05        0.09
  FID2241              JUNCTION     0.13     0.20  1373.33     0  04:05        0.06
  FID2242              JUNCTION     0.13     0.21  1374.25     0  04:05        0.07
  FID2244              JUNCTION     0.12     0.19  1374.55     0  03:30        0.06
  FID2440              JUNCTION     0.38     0.60  1374.85     0  04:12        0.18
  FID2442              JUNCTION     0.00     0.00  1375.27     0  00:00        0.00
  FID2446              JUNCTION     0.16     0.52  1376.32     0  04:05        0.16
  FID2447              JUNCTION     0.15     0.44  1376.14     0  04:05        0.13
  FID2455              JUNCTION     0.29     0.56  1374.55     0  04:20        0.17
  FID2711              JUNCTION     0.12     0.24  1370.42     0  04:05        0.07
  FID2719              JUNCTION     0.16     0.46  1370.56     0  04:05        0.14
  FID2720              JUNCTION     0.15     0.37  1370.57     0  04:05        0.11
  FID2824              JUNCTION     0.12     0.18  1371.46     0  04:10        0.06
  FID2827              JUNCTION     0.13     0.23  1371.53     0  04:10        0.07
  FID2828              JUNCTION     0.13     0.23  1371.55     0  04:10        0.07
  FID2832              JUNCTION     0.16     0.30  1370.90     0  04:10        0.09
  FID2833              JUNCTION     0.21     0.47  1371.09     0  04:10        0.14
  FID2839              JUNCTION     0.18     0.34  1371.54     0  04:20        0.10
  FID2873              JUNCTION     0.15     0.28  1370.98     0  04:10        0.09
  FID2964              JUNCTION     0.17     0.29  1371.07     0  04:40        0.09
  FID2965              JUNCTION     0.41     0.81  1371.07     0  04:40        0.25
  FID4584              JUNCTION     0.13     0.28  1371.62     0  04:10        0.09
  FID5068              JUNCTION     0.12     0.19  1375.57     0  04:05        0.06
  FID5072              JUNCTION     0.47     0.78  1374.08     0  04:24        0.24
  FID5140              JUNCTION     0.15     0.25  1373.47     0  04:05        0.08
  FID5435              JUNCTION     0.16     0.26  1373.01     0  04:05        0.08
  FID5437              JUNCTION     0.12     0.17  1373.12     0  04:05        0.05
  FID5503              JUNCTION     0.12     0.16  1371.49     0  03:55        0.05
  FID5504              JUNCTION     0.15     0.25  1371.61     0  04:10        0.08
  FID5527              JUNCTION     0.13     0.21  1372.71     0  04:10        0.06
  FID5568              JUNCTION     0.45     0.79  1373.18     0  04:31        0.24
  FID5784              JUNCTION     0.46     0.79  1372.79     0  04:33        0.24
  FID5785              JUNCTION     0.14     0.24  1374.67     0  04:05        0.07
  AFID6926             JUNCTION     0.14     0.25  1370.05     0  04:15        0.08
  AFID7360             JUNCTION     0.46     0.89  1371.02     0  04:40        0.27
  AFID7363             JUNCTION     0.45     0.87  1371.04     0  04:40        0.27
  AFID7376             JUNCTION     0.19     0.39  1371.62     0  04:10        0.12
  AFID7377             JUNCTION     0.38     0.70  1371.37     0  04:38        0.21
  AFID7705             JUNCTION     0.48     0.59  1375.55     0  04:15        0.18
  AFID7706             JUNCTION     0.54     0.64  1375.56     0  04:15        0.20
  AFID7792             JUNCTION     0.18     0.38  1375.18     0  04:05        0.12
  AFID8223             JUNCTION     0.46     0.79  1372.80     0  04:33        0.24
  J1                   JUNCTION     0.70     0.73  1375.72     0  04:17        0.22
  FID4901              JUNCTION     0.43     0.52  1375.59     0  04:16        0.16
  J9                   JUNCTION     0.59     0.62  1375.71     0  04:17        0.19
  J11                  JUNCTION     0.44     0.47  1375.68     0  04:17        0.14
  J12                  JUNCTION     0.43     0.50  1375.61     0  04:16        0.15
  J13                  JUNCTION     0.43     0.51  1375.59     0  04:16        0.16
  FID4902              JUNCTION     0.45     0.54  1375.59     0  04:16        0.16
  J14                  JUNCTION     0.36     0.51  1375.42     0  04:06        0.15
  J15                  JUNCTION     0.34     0.53  1375.19     0  04:07        0.16
  J16                  JUNCTION     0.35     0.53  1375.17     0  04:08        0.16
  FID2449              JUNCTION     0.38     0.61  1374.93     0  04:11        0.19
  J17                  JUNCTION     0.28     0.56  1374.53     0  04:20        0.17
  J19                  JUNCTION     0.41     0.73  1374.28     0  04:24        0.22
  FID5069              JUNCTION     0.49     0.81  1374.07     0  04:24        0.25
  FID5139              JUNCTION     0.46     0.79  1373.15     0  04:31        0.24
  J24                  JUNCTION     0.46     0.80  1373.16     0  04:31        0.24
  FID4984              JUNCTION     0.48     0.81  1372.77     0  04:33        0.25
  FID2669              JUNCTION     0.35     0.68  1369.12     0  04:41        0.21
  FID2712              JUNCTION     0.37     0.72  1369.92     0  04:38        0.22
  FID2718              JUNCTION     0.37     0.74  1369.98     0  04:38        0.22
  FID2838              JUNCTION     0.54     0.98  1370.92     0  04:38        0.30
  FID2825              JUNCTION     0.59     1.05  1370.95     0  04:39        0.32
  FID2823              JUNCTION     0.64     1.10  1370.98     0  04:40        0.34
  FID5505              JUNCTION     0.53     0.97  1371.00     0  04:40        0.30
  FID5436              JUNCTION     0.49     0.81  1372.13     0  04:34        0.25
  FID5438              JUNCTION     0.42     0.74  1372.17     0  04:34        0.23
  J49                  JUNCTION     0.47     0.56  1375.58     0  04:16        0.17
  J50                  JUNCTION     0.51     0.60  1375.57     0  04:16        0.18
  J51                  JUNCTION     0.56     0.67  1375.56     0  04:15        0.20
  J52                  JUNCTION     0.57     0.68  1375.56     0  04:15        0.21
  J53                  JUNCTION     0.36     0.50  1375.42     0  04:06        0.15
  J54                  JUNCTION     0.37     0.49  1375.44     0  04:06        0.15
  J55                  JUNCTION     0.41     0.52  1375.54     0  04:15        0.16
  J56                  JUNCTION     0.39     0.49  1375.52     0  04:15        0.15
  J57                  JUNCTION     0.37     0.47  1375.50     0  04:11        0.14
  J58                  JUNCTION     0.37     0.48  1375.46     0  04:07        0.15
  FID1935              JUNCTION     0.37     0.51  1375.40     0  04:05        0.16
  J59                  JUNCTION     0.37     0.51  1375.38     0  04:06        0.16
  J60                  JUNCTION     0.36     0.51  1375.33     0  04:07        0.15
  J61                  JUNCTION     0.34     0.50  1375.27     0  04:08        0.15
  J62                  JUNCTION     0.33     0.50  1375.25     0  04:08        0.15
  J63                  JUNCTION     0.34     0.53  1375.21     0  04:08        0.16
  J64                  JUNCTION     0.33     0.52  1375.14     0  04:08        0.16
  J65                  JUNCTION     0.30     0.50  1375.08     0  04:09        0.15
  J66                  JUNCTION     0.38     0.60  1374.82     0  04:12        0.18
  J67                  JUNCTION     0.37     0.60  1374.75     0  04:13        0.18
  J68                  JUNCTION     0.36     0.58  1374.65     0  04:21        0.18
  J69                  JUNCTION     0.49     0.78  1374.51     0  04:20        0.24
  J70                  JUNCTION     0.47     0.77  1374.42     0  04:22        0.23
  J71                  JUNCTION     0.45     0.75  1374.35     0  04:23        0.23
  J72                  JUNCTION     0.48     0.79  1374.14     0  04:24        0.24
  J73                  JUNCTION     0.49     0.81  1374.03     0  04:24        0.25
  J74                  JUNCTION     0.50     0.81  1373.79     0  04:28        0.25
  J75                  JUNCTION     0.50     0.81  1373.66     0  04:29        0.25
  J76                  JUNCTION     0.46     0.79  1373.13     0  04:31        0.24
  J77                  JUNCTION     0.46     0.80  1373.00     0  04:31        0.24
  J78                  JUNCTION     0.46     0.80  1372.87     0  04:32        0.24
  J79                  JUNCTION     0.46     0.79  1372.80     0  04:33        0.24
  J80                  JUNCTION     0.39     0.72  1372.20     0  04:35        0.22
  J81                  JUNCTION     0.47     0.79  1371.78     0  04:38        0.24
  J82                  JUNCTION     0.47     0.78  1371.71     0  04:38        0.24
  J83                  JUNCTION     0.39     0.73  1371.53     0  04:39        0.22
  J84                  JUNCTION     0.36     0.66  1371.30     0  04:39        0.20
  J85                  JUNCTION     0.36     0.69  1371.21     0  04:40        0.21
  J86                  JUNCTION     0.38     0.75  1371.12     0  04:40        0.23
  J87                  JUNCTION     0.44     0.86  1371.05     0  04:40        0.26
  J88                  JUNCTION     0.51     0.96  1371.00     0  04:40        0.29
  J89                  JUNCTION     0.55     1.00  1370.99     0  04:40        0.31
  J90                  JUNCTION     0.51     0.95  1370.90     0  04:38        0.29
  J91                  JUNCTION     0.51     0.95  1370.84     0  04:39        0.29
  J92                  JUNCTION     0.51     0.95  1370.78     0  04:39        0.29
  J93                  JUNCTION     0.51     0.95  1370.67     0  04:39        0.29
  J94                  JUNCTION     0.51     0.95  1370.61     0  04:38        0.29
  J95                  JUNCTION     0.51     0.95  1370.58     0  04:38        0.29
  J96                  JUNCTION     0.50     0.94  1370.50     0  04:39        0.29
  J97                  JUNCTION     0.50     0.93  1370.43     0  04:39        0.28
  J98                  JUNCTION     0.49     0.92  1370.36     0  04:39        0.28
  J99                  JUNCTION     0.48     0.90  1370.30     0  04:40        0.27
  J100                 JUNCTION     0.46     0.88  1370.24     0  04:40        0.27
  J101                 JUNCTION     0.45     0.84  1370.17     0  04:40        0.26
  J102                 JUNCTION     0.37     0.74  1370.01     0  04:39        0.23
  J103                 JUNCTION     0.37     0.73  1369.96     0  04:38        0.22
  J104                 JUNCTION     0.36     0.71  1369.88     0  04:39        0.22
  J105                 JUNCTION     0.36     0.70  1369.83     0  04:39        0.21
  J106                 JUNCTION     0.35     0.68  1369.75     0  04:39        0.21
  J107                 JUNCTION     0.35     0.68  1369.61     0  04:40        0.21
  J108                 JUNCTION     0.35     0.68  1369.47     0  04:40        0.21
  J109                 JUNCTION     0.35     0.68  1369.36     0  04:40        0.21
  J110                 JUNCTION     0.35     0.68  1369.26     0  04:41        0.21
  J111                 JUNCTION     0.35     0.68  1369.16     0  04:41        0.21
  J112                 JUNCTION     0.35     0.68  1369.01     0  04:41        0.21
  J113                 JUNCTION     0.35     0.68  1368.91     0  04:42        0.21
  J114                 JUNCTION     0.34     0.68  1368.80     0  04:42        0.21
  J115                 JUNCTION     0.34     0.68  1368.74     0  04:42        0.21
  J116                 JUNCTION     0.34     0.68  1368.67     0  04:42        0.21
  J117                 JUNCTION     0.34     0.68  1368.56     0  04:43        0.21
  J118                 JUNCTION     0.35     0.68  1368.45     0  04:43        0.21
  J119                 JUNCTION     0.35     0.67  1368.38     0  04:43        0.21
  J120                 JUNCTION     0.36     0.66  1368.26     0  04:43        0.20
  FID2451              JUNCTION     0.38     0.60  1374.88     0  04:11        0.18
  J121                 JUNCTION     0.37     0.70  1371.44     0  04:38        0.21
  J122                 JUNCTION     0.38     0.70  1371.41     0  04:38        0.21
  FID3706              JUNCTION     0.51     0.95  1370.69     0  04:39        0.29
  FID2831              JUNCTION     0.51     0.95  1370.57     0  04:38        0.29
  FID2689              OUTFALL      0.25     0.49  1367.99     0  04:43        0.15
  
  
  *******************
  Node Inflow Summary
  *******************
  
  -------------------------------------------------------------------------------------------------
                                  Maximum  Maximum                  Lateral       Total        Flow
                                  Lateral    Total  Time of Max      Inflow      Inflow     Balance
                                   Inflow   Inflow   Occurrence      Volume      Volume       Error
  Node                 Type           CMS      CMS  days hr:min    10^6 ltr    10^6 ltr     Percent
  -------------------------------------------------------------------------------------------------
  FID1936              JUNCTION     0.172    0.172     0  04:05       0.225       0.225       0.076
  FID1955              JUNCTION     0.160    0.160     0  04:15        0.54        0.54       0.032
  FID1960              JUNCTION     0.074    0.074     0  04:15       0.246       0.246       0.069
  FID1965              JUNCTION     0.037    0.037     0  04:15       0.124       0.124       0.141
  FID1968              JUNCTION     0.011    0.011     0  04:15      0.0374      0.0374       0.467
  FID2239              JUNCTION     0.013    0.013     0  04:05      0.0388      0.0388       1.148
  FID2241              JUNCTION     0.000    0.012     0  04:05           0      0.0363       0.478
  FID2242              JUNCTION     0.012    0.012     0  04:05      0.0365      0.0365       0.500
  FID2244              JUNCTION     0.006    0.006     0  03:30      0.0142      0.0142       1.242
  FID2440              JUNCTION     0.000    1.228     0  04:10           0        15.3       0.228
  FID2442              JUNCTION     0.000    0.000     0  00:00           0           0       0.000 ltr
  FID2446              JUNCTION     0.128    0.128     0  04:05       0.159       0.159       0.975
  FID2447              JUNCTION     0.000    0.127     0  04:05           0       0.157      -0.423
  FID2455              JUNCTION     0.091    1.278     0  04:13       0.282        15.4       0.210
  FID2711              JUNCTION     0.000    0.034     0  04:05           0      0.0467       0.428
  FID2719              JUNCTION     0.137    0.137     0  04:05       0.217       0.217       0.221
  FID2720              JUNCTION     0.036    0.036     0  04:05      0.0469      0.0469       0.473
  FID2824              JUNCTION     0.000    0.003     0  04:10    0.000645      0.0096       1.785
  FID2827              JUNCTION     0.000    0.003     0  04:10    0.000731     0.00911       1.667
  FID2828              JUNCTION     0.003    0.003     0  04:10     0.00862     0.00862       2.907
  FID2832              JUNCTION     0.000    0.176     0  04:10           0       0.558       0.056
  FID2833              JUNCTION     0.176    0.176     0  04:10       0.558       0.558       0.043
  FID2839              JUNCTION     0.374    0.374     0  04:20        1.26        1.26       0.029
  FID2873              JUNCTION     0.023    0.023     0  04:10      0.0733      0.0733       0.819
  FID2964              JUNCTION     0.024    0.024     0  04:10       0.103       0.103       0.159
  FID2965              JUNCTION     0.000    1.657     0  04:40           0        16.4       0.280
  FID4584              JUNCTION     0.000    0.002     0  03:38           0    0.000637      26.269
  FID5068              JUNCTION     0.006    0.006     0  04:05      0.0174      0.0174       1.008
  FID5072              JUNCTION     0.094    1.401     0  04:20       0.285        15.5       0.198
  FID5140              JUNCTION     0.106    0.106     0  04:05        0.31        0.31       0.033
  FID5435              JUNCTION     0.206    0.206     0  04:05       0.877       0.877       0.021
  FID5437              JUNCTION     0.002    0.002     0  04:05     0.00475     0.00475       3.803
  FID5503              JUNCTION     0.000    0.000     0  03:55    0.000692    0.000692      33.285
  FID5504              JUNCTION     0.070    0.070     0  04:10       0.221       0.221       0.120
  FID5527              JUNCTION     0.015    0.015     0  04:10      0.0459      0.0459       0.386
  FID5568              JUNCTION     0.003    1.393     0  04:30     0.00681        15.2       0.702
  FID5784              JUNCTION     0.000    1.491     0  04:31           0        15.6       0.099
  FID5785              JUNCTION     0.000    0.013     0  04:05           0      0.0383       0.499
  AFID6926             JUNCTION     0.072    0.072     0  04:15       0.227       0.227       0.079
  AFID7360             JUNCTION     0.000    1.657     0  04:41    0.000416        16.3       0.204
  AFID7363             JUNCTION     0.000    1.657     0  04:41           0        16.3       0.101
  AFID7376             JUNCTION     0.186    0.186     0  04:10       0.605       0.606       0.020
  AFID7377             JUNCTION     0.000    1.654     0  04:36           0        16.4       0.109
  AFID7705             JUNCTION     0.000    0.713     0  04:15           0        14.1       0.268
  AFID7706             JUNCTION     0.000    0.643     0  04:17           0        13.9       0.259
  AFID7792             JUNCTION     0.191    0.191     0  04:05       0.614       0.614       0.029
  AFID8223             JUNCTION     0.000    1.485     0  04:31           0        15.5       0.022
  J1                   JUNCTION     0.667    0.667     0  04:15          21          21       0.151
  FID4901              JUNCTION     0.000    0.483     0  04:19           0        13.8       0.234
  J9                   JUNCTION     0.000    0.667     0  04:15           0          21       0.303
  J11                  JUNCTION     0.000    0.666     0  04:15           0        20.9       0.523
  J12                  JUNCTION     0.007    0.671     0  04:20      0.0229        20.8       0.571
  J13                  JUNCTION    -0.220    0.678     0  04:35       -7.13        20.7      -0.191
  FID4902              JUNCTION     0.000    0.491     0  04:15           0        13.8       0.367
  J14                  JUNCTION     0.293    0.845     0  04:05       0.481        14.3       0.192
  J15                  JUNCTION     0.372    1.131     0  04:06       0.671        14.9       0.158
  J16                  JUNCTION     0.008    1.126     0  04:06     0.00933        14.9       0.159
  FID2449              JUNCTION     0.001    1.078     0  04:09     0.00134        14.7       1.251
  J17                  JUNCTION     0.136    1.381     0  04:20       0.418        15.8       0.100
  J19                  JUNCTION     0.018    1.365     0  04:21      0.0364        15.6       1.221
  FID5069              JUNCTION     0.000    1.401     0  04:20           0        15.5       0.178
  FID5139              JUNCTION     0.000    1.450     0  04:30           0        15.4       0.053
  J24                  JUNCTION     0.014    1.397     0  04:32      0.0414        15.1       0.080
  FID4984              JUNCTION     0.000    1.495     0  04:31           0        15.6       0.821
  FID2669              JUNCTION     0.000    1.962     0  04:40           0        18.1       0.065
  FID2712              JUNCTION     0.000    1.928     0  04:37           0          18       0.082
  FID2718              JUNCTION     0.000    1.920     0  04:37           0          18       0.058
  FID2838              JUNCTION     0.000    1.836     0  04:37           0        17.5       0.174
  FID2825              JUNCTION     0.000    1.680     0  04:43           0        16.3       0.316
  FID2823              JUNCTION     0.000    1.677     0  04:42           0        16.3       0.485
  FID5505              JUNCTION     0.000    1.675     0  04:41           0        16.4       0.130
  FID5436              JUNCTION     0.000    1.601     0  04:32           0        16.2       0.805
  FID5438              JUNCTION     0.000    1.493     0  04:35           0        15.4       0.149
  J49                  JUNCTION     0.000    0.493     0  04:19           0        13.7       0.587
  J50                  JUNCTION     0.000    0.497     0  04:19    0.000276        13.6       1.029
  J51                  JUNCTION     0.000    0.510     0  04:33           0        13.5       0.830
  J52                  JUNCTION     0.000    0.521     0  04:34           0        13.4       0.246
  J53                  JUNCTION     0.000    0.723     0  04:15           0        13.8       0.209
  J54                  JUNCTION     0.000    0.720     0  04:15           0        13.9       0.310
  J55                  JUNCTION     0.000    0.713     0  04:15           0        14.1       0.297
  J56                  JUNCTION     0.000    0.713     0  04:15           0          14       0.318
  J57                  JUNCTION     0.000    0.714     0  04:15           0          14       0.397
  J58                  JUNCTION     0.002    0.717     0  04:16     0.00673        13.9       0.425
  FID1935              JUNCTION     0.000    1.000     0  04:05           0        14.5       0.247
  J59                  JUNCTION     0.000    0.981     0  04:05           0        14.4       0.342
  J60                  JUNCTION     0.008    0.953     0  04:05     0.00938        14.4       0.535
  J61                  JUNCTION     0.000    0.904     0  04:06           0        14.3       0.359
  J62                  JUNCTION     0.000    0.895     0  04:08           0        14.3       0.161
  J63                  JUNCTION     0.000    0.896     0  04:08           0        14.2       0.164
  J64                  JUNCTION     0.000    1.118     0  04:06           0        14.9       0.164
  J65                  JUNCTION     0.024    1.119     0  04:07        0.03        14.9       0.950
  J66                  JUNCTION     0.000    1.225     0  04:10           0        15.2       0.287
  J67                  JUNCTION     0.000    1.220     0  04:11           0        15.2       0.428
  J68                  JUNCTION     0.009    1.220     0  04:12       0.023        15.2       0.464
  J69                  JUNCTION     0.000    1.379     0  04:20           0        15.7       0.450
  J70                  JUNCTION     0.005    1.375     0  04:20      0.0116        15.7       0.577
  J71                  JUNCTION     0.000    1.366     0  04:21           0        15.6       0.415
  J72                  JUNCTION     0.010    1.357     0  04:23      0.0313        15.4       1.360
  J73                  JUNCTION     0.000    1.400     0  04:22           0        15.4       0.394
  J74                  JUNCTION     0.000    1.398     0  04:24           0        15.4       0.580
  J75                  JUNCTION     0.006    1.394     0  04:27      0.0121        15.3       0.897
  J76                  JUNCTION     0.000    1.449     0  04:30           0        15.4       0.219
  J77                  JUNCTION     0.083    1.491     0  04:30       0.265        15.6       0.402
  J78                  JUNCTION     0.000    1.488     0  04:30           0        15.6       0.302
  J79                  JUNCTION     0.000    1.485     0  04:31           0        15.5       0.110
  J80                  JUNCTION     0.011    1.494     0  04:33      0.0306        15.5       0.672
  J81                  JUNCTION     0.002    1.600     0  04:34     0.00535        16.2       1.222
  J82                  JUNCTION     0.000    1.591     0  04:37           0          16       0.483
  J83                  JUNCTION     0.000    1.589     0  04:38           0        15.9       0.359
  J84                  JUNCTION     0.000    1.653     0  04:37           0        16.4       0.191
  J85                  JUNCTION     0.000    1.652     0  04:37           0        16.4       0.355
  J86                  JUNCTION     0.000    1.650     0  04:39           0        16.3       0.366
  J87                  JUNCTION     0.003    1.657     0  04:40     0.00825        16.3       0.156
  J88                  JUNCTION     0.000    1.658     0  04:42           0        16.2       0.236
  J89                  JUNCTION     0.000    1.675     0  04:42           0        16.4       0.357
  J90                  JUNCTION     0.000    1.835     0  04:37           0        17.5       0.122
  J91                  JUNCTION     0.000    1.835     0  04:38           0        17.4       0.171
  J92                  JUNCTION     0.000    1.835     0  04:38    3.35e-06        17.4       0.212
  J93                  JUNCTION     0.000    1.841     0  04:39           0        17.4       0.113
  J94                  JUNCTION     0.000    1.841     0  04:39    6.09e-06        17.4       0.130
  J95                  JUNCTION     0.000    1.842     0  04:40           0        17.4       0.049
  J96                  JUNCTION     0.000    1.893     0  04:37           0        17.9       0.183
  J97                  JUNCTION     0.000    1.892     0  04:38           0        17.9       0.156
  J98                  JUNCTION     0.000    1.891     0  04:38           0        17.8       0.137
  J99                  JUNCTION     0.000    1.891     0  04:39           0        17.8       0.117
  J100                 JUNCTION     0.000    1.891     0  04:39           0        17.8       0.099
  J101                 JUNCTION     0.000    1.891     0  04:40           0        17.8       0.114
  J102                 JUNCTION     0.000    1.891     0  04:40           0        17.8       0.088
  J103                 JUNCTION     0.000    1.920     0  04:38           0        17.9       0.066
  J104                 JUNCTION     0.000    1.927     0  04:37           0          18       0.087
  J105                 JUNCTION     0.000    1.927     0  04:38           0          18       0.108
  J106                 JUNCTION     0.000    1.926     0  04:38           0        17.9       0.121
  J107                 JUNCTION     0.000    1.926     0  04:39           0        17.9       0.123
  J108                 JUNCTION     0.000    1.926     0  04:39    2.11e-05        17.9       0.111
  J109                 JUNCTION     0.000    1.925     0  04:40           0        17.9       0.094
  J110                 JUNCTION     0.000    1.925     0  04:40           0        17.9       0.091
  J111                 JUNCTION     0.000    1.925     0  04:40    0.000186        17.8       0.067
  J112                 JUNCTION     0.000    1.962     0  04:41           0          18       0.095
  J113                 JUNCTION     0.000    1.962     0  04:41           0          18       0.092
  J114                 JUNCTION     0.000    1.961     0  04:41           0          18       0.079
  J115                 JUNCTION     0.000    1.961     0  04:42           0          18       0.058
  J116                 JUNCTION     0.000    1.961     0  04:42    5.86e-06          18       0.076
  J117                 JUNCTION     0.000    1.961     0  04:42           0          18       0.094
  J118                 JUNCTION     0.000    1.961     0  04:42           0          18       0.081
  J119                 JUNCTION     0.000    1.961     0  04:43           0        17.9       0.079
  J120                 JUNCTION     0.000    1.960     0  04:43           0        17.9       0.097
  FID2451              JUNCTION     0.000    1.078     0  04:10           0        14.7       0.228
  J121                 JUNCTION     0.006    1.590     0  04:39      0.0162        15.8       0.109
  J122                 JUNCTION     0.000    1.590     0  04:39    0.000734        15.8       0.096
  FID3706              JUNCTION     0.000    1.841     0  04:39           0        17.4       0.169
  FID2831              JUNCTION     0.000    1.893     0  04:36           0        17.9       0.107
  FID2689              OUTFALL      0.000    1.960     0  04:43           0        17.9       0.000
  
  
  **********************
  Node Surcharge Summary
  **********************
  
  No nodes were surcharged.
  
  
  *********************
  Node Flooding Summary
  *********************
  
  No nodes were flooded.
  
  
  ***********************
  Outfall Loading Summary
  ***********************
  
  -----------------------------------------------------------------------------------------------------
                         Flow       Avg       Max       Total         Total         Total         Total
                         Freq      Flow      Flow      Volume           TSS            TP           TDP
  Outfall Node           Pcnt       CMS       CMS    10^6 ltr            kg            kg            kg
  -----------------------------------------------------------------------------------------------------
  FID2689               76.80     0.949     1.960      17.906      4618.404         3.870         5.594
  -----------------------------------------------------------------------------------------------------
  System                76.80     0.949     1.960      17.906      4618.404         3.870         5.594
  
  
  ********************
  Link Flow Summary
  ********************
  
  -----------------------------------------------------------------------------
                                 Maximum  Time of Max   Maximum    Max/    Max/
                                  |Flow|   Occurrence   |Veloc|    Full    Full
  Link                 Type          CMS  days hr:min     m/sec    Flow   Depth
  -----------------------------------------------------------------------------
  FID1123              CONDUIT     0.023     0  04:10      0.79    0.39    0.63
  FID1139              CONDUIT     0.134     0  04:05      1.47    0.96    0.75
  FID1148              CONDUIT     0.176     0  04:10      1.04    0.44    0.30
  FID1149              CONDUIT     0.176     0  04:10      2.18    0.06    0.32
  FID3364              CONDUIT     0.185     0  04:10      0.95    0.15    0.40
  FID3671              CONDUIT     0.011     0  04:15      1.13    0.08    0.19
  FID3672              CONDUIT     0.037     0  04:15      1.59    0.27    0.36
  FID3762              CONDUIT     0.074     0  04:15      1.79    0.22    0.47
  FID3765              CONDUIT     0.160     0  04:15      2.60    0.45    0.57
  FID4112              CONDUIT     0.171     0  04:05      1.71    0.30    0.38
  FID4186              CONDUIT     0.012     0  04:05      0.96    0.06    0.16
  FID4187              CONDUIT     0.012     0  04:05      1.52    0.03    0.12
  FID4201              CONDUIT     0.127     0  04:05      1.22    1.30    0.86
  FID4202              CONDUIT     0.126     0  04:05      1.43    0.91    0.72
  FID4203              CONDUIT     0.000     0  00:00      0.00    0.00    0.30
  FID4299              CONDUIT     0.006     0  04:05      0.91    0.02    0.11
  FID4372              CONDUIT     0.105     0  04:05      0.62    0.02    0.33
  FID4498              CONDUIT     0.024     0  04:10      0.41    0.09    0.65
  FID4806              CONDUIT     0.206     0  04:05      4.96    0.03    0.11
  FID4807              CONDUIT     0.002     0  04:05      0.70    0.01    0.07
  FID4882              CONDUIT     0.000     0  03:55      0.03    0.00    0.52
  FID4884              CONDUIT     0.070     0  04:10      1.91    0.02    0.15
  FID4914              CONDUIT     0.015     0  04:10      0.22    0.05    0.58
  FID4915              CONDUIT     0.003     0  04:10      0.23    0.09    0.20
  FID4916              CONDUIT     0.003     0  04:10      0.29    0.08    0.16
  FID4917              CONDUIT     0.003     0  04:10      0.87    0.01    0.54
  FID5307              CONDUIT     0.013     0  04:05      0.46    0.23    0.30
  FID5308              CONDUIT     0.006     0  03:30      1.19    0.03    0.12
  FID5312              CONDUIT     0.013     0  04:05      0.63    0.08    0.18
  FID5865              CONDUIT     0.374     0  04:20      4.09    0.13    0.33
  C9                   CHANNEL     0.667     0  04:15      0.66    0.07    0.47
  C12                  CHANNEL     0.667     0  04:21      0.46    0.29    0.57
  C13                  CHANNEL     0.678     0  04:35      0.62    0.30    0.59
  C14                  CHANNEL     0.463     0  04:35      0.69    0.20    0.60
  C52                  CONDUIT     0.191     0  04:05      1.23    0.30    0.54
  C130                 CONDUIT     0.034     0  04:05      0.61    0.64    0.37
  C131                 CONDUIT     0.034     0  04:05      1.65    0.07    0.41
  C139                 CONDUIT     0.002     0  03:38      0.11    0.02    0.49
  C191                 CHANNEL     0.493     0  04:19      0.48    0.22    0.64
  C193                 CHANNEL     0.510     0  04:33      0.38    0.22    0.74
  C194                 CHANNEL     0.521     0  04:34      0.30    0.23    0.78
  C195                 CHANNEL     0.524     0  04:34      0.35    0.10    0.62
  C196                 CONDUIT     0.484     0  04:19      0.45    0.35    0.67
  C197                 CONDUIT     0.645     0  04:17      0.24    0.30    0.88
  C198                 CHANNEL     0.713     0  04:15      0.30    0.14    0.52
  C199                 CHANNEL     0.713     0  04:15      0.31    3.11    0.60
  C200                 CHANNEL     0.714     0  04:15      0.33    2.81    0.58
  C201                 CHANNEL     0.716     0  04:16      0.34    0.21    0.48
  C202                 CHANNEL     0.720     0  04:15      0.34    0.21    0.49
  C203                 CHANNEL     0.723     0  04:15      0.34    0.21    0.50
  C204                 CHANNEL     0.727     0  04:15      0.51    0.21    0.50
  C205                 CONDUIT     0.832     0  04:06      0.34    0.57    0.62
  C206                 CHANNEL     0.981     0  04:05      0.42    0.29    0.51
  C207                 CHANNEL     0.948     0  04:05      0.41    0.28    0.51
  C208                 CHANNEL     0.904     0  04:06      0.40    0.27    0.50
  C209                 CHANNEL     0.895     0  04:08      0.40    0.26    0.50
  C210                 CHANNEL     0.896     0  04:08      0.48    0.27    0.59
  C211                 CHANNEL     0.899     0  04:09      0.46    0.33    0.54
  C212                 CONDUIT     1.123     0  04:06      0.44    0.65    0.64
  C213                 CHANNEL     1.118     0  04:06      0.58    0.40    0.54
  C214                 CHANNEL     1.109     0  04:07      0.60    0.40    0.52
  C215                 CONDUIT     1.078     0  04:09      0.40    0.62    0.67
  C216                 CONDUIT     1.061     0  04:11      0.49    0.79    0.57
  C217                 CONDUIT     1.076     0  04:11      0.42    0.43    0.44
  C218                 CHANNEL     1.225     0  04:10      0.53    0.44    0.61
  C219                 CHANNEL     1.220     0  04:11      0.53    0.44    0.61
  C220                 CHANNEL     1.215     0  04:12      0.54    0.44    0.60
  C221                 CHANNEL     1.215     0  04:13      0.56    0.44    0.58
  C222                 CONDUIT     1.274     0  04:13      0.54    0.85    0.68
  C223                 CHANNEL     1.379     0  04:20      1.38    0.17    0.59
  C224                 CHANNEL     1.372     0  04:20      0.51    0.89    0.90
  C225                 CHANNEL     1.366     0  04:21      0.52    0.89    0.88
  C226                 CHANNEL     1.360     0  04:21      0.54    0.88    0.86
  C227                 CONDUIT     1.352     0  04:23      0.42    1.10    0.92
  C228                 CHANNEL     1.356     0  04:25      0.67    0.55    0.73
  C229                 CONDUIT     1.398     0  04:22      0.34    0.25    0.53
  C230                 CHANNEL     1.400     0  04:22      0.67    0.57    0.75
  C231                 CHANNEL     1.398     0  04:24      0.67    0.57    0.75
  C232                 CHANNEL     1.393     0  04:27      0.66    0.57    0.75
  C233                 CHANNEL     1.392     0  04:30      0.67    0.57    0.74
  C234                 CONDUIT     1.394     0  04:33      0.51    0.57    0.58
  C235                 CHANNEL     1.398     0  04:32      0.68    0.57    0.74
  C236                 CHANNEL     1.449     0  04:30      0.67    0.69    0.82
  C237                 CHANNEL     1.448     0  04:31      0.66    0.69    0.82
  C238                 CHANNEL     1.488     0  04:30      0.68    0.71    0.83
  C239                 CHANNEL     1.485     0  04:31      0.68    0.71    0.82
  C240                 CHANNEL     1.484     0  04:31      0.68    0.69    0.82
  C241                 CHANNEL     1.485     0  04:31      0.76    0.71    0.82
  C242                 CONDUIT     1.490     0  04:31      0.50    0.52    0.66
  C243                 CHANNEL     1.492     0  04:33      0.72    0.71    0.79
  C244                 CHANNEL     1.493     0  04:35      0.94    0.24    0.47
  C245                 CONDUIT     1.493     0  04:35      0.61    0.41    0.61
  C246                 CHANNEL     1.596     0  04:34      0.58    0.51    0.70
  C247                 CHANNEL     1.591     0  04:37      0.60    0.51    0.68
  C248                 CHANNEL     1.589     0  04:38      0.63    0.51    0.65
  C249                 CHANNEL     1.589     0  04:39      2.75    0.64    0.67
  C250                 CONDUIT     1.590     0  04:39      0.72    0.58    0.55
  C251                 CONDUIT     1.590     0  04:40      0.72    0.58    0.54
  C252                 CHANNEL     1.653     0  04:37      2.08    0.67    0.64
  C253                 CHANNEL     1.652     0  04:37      0.86    0.38    0.64
  C254                 CHANNEL     1.650     0  04:39      1.67    0.38    0.68
  C255                 CHANNEL     1.649     0  04:40      2.05    0.37    0.74
  C256                 CHANNEL     1.657     0  04:41      3.91    0.38    0.79
  C257                 CHANNEL     1.657     0  04:41      1.41    0.38    0.82
  C258                 CONDUIT     1.657     0  04:41      0.59    0.61    0.69
  C259                 CHANNEL     1.658     0  04:42      0.49    0.38    0.87
  C260                 CHANNEL     1.659     0  04:42      2.05    0.38    0.91
  C261                 CHANNEL     1.675     0  04:42      0.58    0.38    0.94
  C262                 CHANNEL     1.677     0  04:42      0.54    0.38    0.97
  C263                 CHANNEL     1.680     0  04:43      0.52    0.39    0.68
  C264                 CONDUIT     1.682     0  04:43      0.55    0.87    0.74
  C265                 CHANNEL     1.835     0  04:37      0.59    0.42    0.61
  C266                 CHANNEL     1.835     0  04:38      0.63    0.36    0.66
  C267                 CHANNEL     1.835     0  04:38      0.63    0.36    0.66
  C268                 CHANNEL     1.834     0  04:39      0.63    0.36    0.66
  C269                 CHANNEL     1.841     0  04:39      0.88    0.36    0.66
  C270                 CHANNEL     1.841     0  04:39      0.63    0.36    0.66
  C271                 CHANNEL     1.842     0  04:40      0.63    0.36    0.66
  C272                 CHANNEL     1.842     0  04:40      1.07    0.36    0.66
  C273                 CHANNEL     1.893     0  04:37      0.66    0.37    0.66
  C274                 CHANNEL     1.892     0  04:38      0.67    0.37    0.65
  C275                 CHANNEL     1.891     0  04:38      0.68    0.37    0.64
  C276                 CHANNEL     1.891     0  04:39      0.70    0.37    0.63
  C277                 CHANNEL     1.891     0  04:39      0.73    0.37    0.62
  C278                 CHANNEL     1.891     0  04:40      0.78    0.37    0.60
  C279                 CHANNEL     1.891     0  04:40      0.91    0.37    0.55
  C280                 CHANNEL     1.891     0  04:41      0.74    0.64    0.75
  C281                 CHANNEL     1.920     0  04:38      0.75    0.65    0.75
  C282                 CHANNEL     1.920     0  04:38      0.76    0.65    0.74
  C283                 CHANNEL     1.927     0  04:37      0.78    0.66    0.73
  C284                 CHANNEL     1.927     0  04:38      0.79    0.66    0.72
  C285                 CHANNEL     1.926     0  04:38      0.82    0.66    0.70
  C286                 CHANNEL     1.926     0  04:39      0.93    0.47    0.69
  C287                 CHANNEL     1.926     0  04:39      0.93    0.47    0.69
  C288                 CHANNEL     1.925     0  04:40      0.92    0.47    0.69
  C289                 CHANNEL     1.925     0  04:40      0.92    0.47    0.69
  C290                 CHANNEL     1.925     0  04:40      0.92    0.47    0.69
  C291                 CHANNEL     1.925     0  04:41      0.95    0.47    0.70
  C292                 CHANNEL     1.962     0  04:41      0.93    0.48    0.70
  C293                 CHANNEL     1.962     0  04:41      0.93    0.48    0.70
  C294                 CHANNEL     1.961     0  04:41      0.93    0.48    0.70
  C295                 CHANNEL     1.961     0  04:42      0.93    0.48    0.70
  C296                 CHANNEL     1.961     0  04:42      0.93    0.48    0.70
  C297                 CHANNEL     1.961     0  04:42      0.93    0.48    0.69
  C298                 CHANNEL     1.961     0  04:42      0.94    0.48    0.69
  C299                 CHANNEL     1.961     0  04:43      0.95    0.48    0.69
  C300                 CHANNEL     1.960     0  04:43      0.96    0.48    0.68
  C301                 CHANNEL     1.960     0  04:43      1.45    0.35    0.44
  C302                 CHANNEL     0.666     0  04:15      0.57    0.10    0.43
  C303                 CHANNEL     0.497     0  04:19      0.43    0.22    0.68
  C353                 CONDUIT     0.072     0  04:15      1.85    0.03    0.11
  
  
  ***************************
  Flow Classification Summary
  ***************************
  
  -------------------------------------------------------------------------------------
                      Adjusted    ---------- Fraction of Time in Flow Class ---------- 
                       /Actual         Up    Down  Sub   Sup   Up    Down  Norm  Inlet 
  Conduit               Length    Dry  Dry   Dry   Crit  Crit  Crit  Crit  Ltd   Ctrl  
  -------------------------------------------------------------------------------------
  FID1123                 1.00   0.24  0.00  0.00  0.30  0.00  0.00  0.47  0.20  0.00
  FID1139                 1.00   0.22  0.00  0.00  0.18  0.00  0.00  0.60  0.12  0.00
  FID1148                 1.00   0.18  0.00  0.00  0.39  0.00  0.00  0.43  0.00  0.00
  FID1149                 1.00   0.21  0.00  0.00  0.43  0.08  0.00  0.28  0.38  0.00
  FID3364                 1.00   0.14  0.04  0.00  0.82  0.00  0.00  0.00  0.67  0.00
  FID3671                 1.00   0.24  0.00  0.00  0.00  0.00  0.00  0.76  0.00  0.00
  FID3672                 1.00   0.23  0.00  0.00  0.00  0.00  0.00  0.77  0.00  0.00
  FID3762                 1.00   0.01  0.20  0.00  0.67  0.12  0.00  0.00  0.64  0.00
  FID3765                 1.00   0.01  0.19  0.00  0.61  0.19  0.00  0.00  0.65  0.00
  FID4112                 1.00   0.20  0.00  0.00  0.00  0.00  0.00  0.80  0.00  0.00
  FID4186                 1.00   0.24  0.00  0.00  0.20  0.25  0.00  0.32  0.00  0.00
  FID4187                 1.00   0.24  0.00  0.00  0.00  0.00  0.00  0.76  0.00  0.00
  FID4201                 1.00   0.21  0.00  0.00  0.73  0.00  0.00  0.06  0.36  0.00
  FID4202                 1.00   0.22  0.00  0.00  0.00  0.00  0.00  0.78  0.00  0.00
  FID4203                 1.00   0.20  0.80  0.00  0.00  0.00  0.00  0.00  0.00  0.00
  FID4299                 1.00   0.24  0.00  0.00  0.00  0.00  0.00  0.76  0.00  0.00
  FID4372                 1.00   0.07  0.13  0.00  0.80  0.00  0.00  0.00  0.66  0.00
  FID4498                 1.00   0.14  0.00  0.00  0.85  0.00  0.00  0.01  0.60  0.00
  FID4806                 1.00   0.17  0.00  0.00  0.00  0.00  0.00  0.83  0.00  0.00
  FID4807                 1.00   0.24  0.00  0.00  0.00  0.00  0.00  0.76  0.00  0.00
  FID4882                 1.00   0.25  0.30  0.00  0.32  0.00  0.00  0.13  0.59  0.00
  FID4884                 1.00   0.21  0.00  0.00  0.18  0.03  0.00  0.58  0.15  0.00
  FID4914                 1.00   0.11  0.12  0.00  0.76  0.00  0.00  0.00  0.62  0.00
  FID4915                 1.00   0.24  0.00  0.00  0.75  0.00  0.00  0.01  0.49  0.00
  FID4916                 1.00   0.25  0.00  0.00  0.58  0.00  0.00  0.18  0.00  0.00
  FID4917                 1.00   0.25  0.00  0.00  0.43  0.00  0.00  0.32  0.32  0.00
  FID5307                 1.00   0.24  0.00  0.00  0.75  0.00  0.00  0.01  0.34  0.00
  FID5308                 1.00   0.24  0.00  0.00  0.00  0.00  0.00  0.76  0.00  0.00
  FID5312                 1.00   0.24  0.00  0.00  0.00  0.00  0.00  0.76  0.00  0.00
  FID5865                 1.00   0.16  0.00  0.00  0.16  0.15  0.00  0.54  0.22  0.00
  C9                      1.00   0.00  0.00  0.00  1.00  0.00  0.00  0.00  0.00  0.00
  C12                     1.00   0.00  0.00  0.00  1.00  0.00  0.00  0.00  0.00  0.00
  C13                     1.00   0.00  0.00  0.00  1.00  0.00  0.00  0.00  0.00  0.00
  C14                     1.00   0.00  0.00  0.00  1.00  0.00  0.00  0.00  0.00  0.00
  C52                     1.00   0.04  0.17  0.00  0.80  0.00  0.00  0.00  0.65  0.00
  C130                    1.00   0.25  0.00  0.00  0.50  0.00  0.00  0.25  0.00  0.00
  C131                    1.00   0.26  0.00  0.00  0.37  0.02  0.00  0.35  0.28  0.00
  C139                    1.00   0.18  0.43  0.00  0.38  0.00  0.01  0.00  0.47  0.00
  C191                    1.00   0.00  0.00  0.00  1.00  0.00  0.00  0.00  0.00  0.00
  C193                    1.00   0.00  0.00  0.00  1.00  0.00  0.00  0.00  0.00  0.00
  C194                    1.00   0.00  0.00  0.00  1.00  0.00  0.00  0.00  0.00  0.00
  C195                    1.00   0.01  0.00  0.00  0.99  0.00  0.00  0.00  0.00  0.00
  C196                    1.00   0.00  0.00  0.00  1.00  0.00  0.00  0.00  0.00  0.00
  C197                    1.00   0.01  0.00  0.00  0.99  0.00  0.00  0.00  0.00  0.00
  C198                    1.00   0.01  0.00  0.00  0.99  0.00  0.00  0.00  0.00  0.00
  C199                    1.00   0.01  0.00  0.00  0.99  0.00  0.00  0.00  0.00  0.00
  C200                    1.00   0.01  0.00  0.00  0.99  0.00  0.00  0.00  0.00  0.00
  C201                    1.00   0.01  0.00  0.00  0.99  0.00  0.00  0.00  0.00  0.00
  C202                    1.00   0.01  0.00  0.00  0.99  0.00  0.00  0.00  0.00  0.00
  C203                    1.00   0.01  0.00  0.00  0.99  0.00  0.00  0.00  0.00  0.00
  C204                    1.00   0.01  0.00  0.00  0.99  0.00  0.00  0.00  0.00  0.00
  C205                    1.00   0.02  0.00  0.00  0.98  0.00  0.00  0.00  0.00  0.00
  C206                    1.00   0.02  0.00  0.00  0.98  0.00  0.00  0.00  0.00  0.00
  C207                    1.00   0.02  0.00  0.00  0.98  0.00  0.00  0.00  0.00  0.00
  C208                    1.00   0.02  0.00  0.00  0.98  0.00  0.00  0.00  0.00  0.00
  C209                    1.00   0.02  0.00  0.00  0.98  0.00  0.00  0.00  0.00  0.00
  C210                    1.00   0.02  0.00  0.00  0.98  0.00  0.00  0.00  0.00  0.00
  C211                    1.00   0.02  0.00  0.00  0.98  0.00  0.00  0.00  0.00  0.00
  C212                    1.00   0.02  0.00  0.00  0.98  0.00  0.00  0.00  0.00  0.00
  C213                    1.00   0.02  0.00  0.00  0.98  0.00  0.00  0.00  0.00  0.00
  C214                    1.00   0.02  0.00  0.00  0.98  0.00  0.00  0.00  0.00  0.00
  C215                    1.00   0.03  0.00  0.00  0.97  0.00  0.00  0.00  0.70  0.00
  C216                    1.00   0.03  0.00  0.00  0.97  0.00  0.00  0.00  0.00  0.00
  C217                    1.00   0.03  0.00  0.00  0.97  0.00  0.00  0.00  0.00  0.00
  C218                    1.00   0.03  0.00  0.00  0.97  0.00  0.00  0.00  0.01  0.00
  C219                    1.00   0.03  0.00  0.00  0.97  0.00  0.00  0.00  0.00  0.00
  C220                    1.00   0.04  0.00  0.00  0.96  0.00  0.00  0.00  0.00  0.00
  C221                    1.00   0.04  0.00  0.00  0.96  0.00  0.00  0.00  0.00  0.00
  C222                    1.00   0.04  0.00  0.00  0.96  0.00  0.00  0.00  0.00  0.00
  C223                    1.00   0.04  0.00  0.00  0.96  0.00  0.00  0.00  0.01  0.00
  C224                    1.00   0.04  0.00  0.00  0.96  0.00  0.00  0.00  0.00  0.00
  C225                    1.00   0.04  0.00  0.00  0.96  0.00  0.00  0.00  0.00  0.00
  C226                    1.00   0.04  0.00  0.00  0.96  0.00  0.00  0.00  0.00  0.00
  C227                    1.00   0.05  0.00  0.00  0.95  0.00  0.00  0.00  0.00  0.00
  C228                    1.00   0.05  0.00  0.00  0.95  0.00  0.00  0.00  0.00  0.00
  C229                    1.00   0.05  0.00  0.00  0.95  0.00  0.00  0.00  0.00  0.00
  C230                    1.00   0.05  0.00  0.00  0.95  0.00  0.00  0.00  0.00  0.00
  C231                    1.00   0.06  0.00  0.00  0.94  0.00  0.00  0.00  0.01  0.00
  C232                    1.00   0.06  0.00  0.00  0.94  0.00  0.00  0.00  0.00  0.00
  C233                    1.00   0.06  0.00  0.00  0.94  0.00  0.00  0.00  0.00  0.00
  C234                    1.00   0.06  0.00  0.00  0.94  0.00  0.00  0.00  0.00  0.00
  C235                    1.00   0.06  0.00  0.00  0.94  0.00  0.00  0.00  0.00  0.00
  C236                    1.00   0.06  0.00  0.00  0.94  0.00  0.00  0.00  0.00  0.00
  C237                    1.00   0.07  0.00  0.00  0.93  0.00  0.00  0.00  0.00  0.00
  C238                    1.00   0.07  0.00  0.00  0.93  0.00  0.00  0.00  0.00  0.00
  C239                    1.00   0.07  0.00  0.00  0.93  0.00  0.00  0.00  0.00  0.00
  C240                    1.00   0.07  0.00  0.00  0.93  0.00  0.00  0.00  0.00  0.00
  C241                    1.00   0.07  0.00  0.00  0.93  0.00  0.00  0.00  0.00  0.00
  C242                    1.00   0.07  0.00  0.00  0.93  0.00  0.00  0.00  0.00  0.00
  C243                    1.00   0.07  0.00  0.00  0.93  0.00  0.00  0.00  0.00  0.00
  C244                    1.00   0.07  0.00  0.00  0.92  0.01  0.00  0.00  0.00  0.00
  C245                    1.00   0.08  0.00  0.00  0.92  0.00  0.00  0.00  0.00  0.00
  C246                    1.00   0.08  0.00  0.00  0.92  0.00  0.00  0.00  0.49  0.00
  C247                    1.00   0.09  0.00  0.00  0.91  0.00  0.00  0.00  0.00  0.00
  C248                    1.00   0.10  0.00  0.00  0.90  0.00  0.00  0.00  0.00  0.00
  C249                    1.00   0.11  0.00  0.00  0.89  0.00  0.00  0.00  0.00  0.00
  C250                    1.00   0.12  0.00  0.00  0.88  0.00  0.00  0.00  0.00  0.00
  C251                    1.00   0.13  0.00  0.00  0.87  0.00  0.00  0.00  0.00  0.00
  C252                    1.00   0.13  0.00  0.00  0.87  0.00  0.00  0.00  0.00  0.00
  C253                    1.00   0.13  0.00  0.00  0.87  0.00  0.00  0.00  0.00  0.00
  C254                    1.00   0.14  0.00  0.00  0.86  0.00  0.00  0.00  0.05  0.00
  C255                    1.00   0.14  0.00  0.00  0.86  0.00  0.00  0.00  0.00  0.00
  C256                    1.00   0.13  0.01  0.00  0.85  0.00  0.00  0.00  0.00  0.00
  C257                    1.00   0.13  0.00  0.00  0.87  0.00  0.00  0.00  0.00  0.00
  C258                    1.00   0.14  0.02  0.00  0.85  0.00  0.00  0.00  0.00  0.00
  C259                    1.00   0.14  0.00  0.00  0.86  0.00  0.00  0.00  0.00  0.00
  C260                    1.00   0.16  0.00  0.00  0.84  0.00  0.00  0.00  0.00  0.00
  C261                    1.00   0.16  0.00  0.00  0.84  0.00  0.00  0.00  0.00  0.00
  C262                    1.00   0.16  0.00  0.00  0.84  0.00  0.00  0.00  0.00  0.00
  C263                    1.00   0.16  0.00  0.00  0.84  0.00  0.00  0.00  0.00  0.00
  C264                    1.00   0.16  0.00  0.00  0.84  0.00  0.00  0.00  0.00  0.00
  C265                    1.00   0.16  0.02  0.00  0.83  0.00  0.00  0.00  0.00  0.00
  C266                    1.00   0.17  0.00  0.00  0.83  0.00  0.00  0.00  0.00  0.00
  C267                    1.00   0.17  0.00  0.00  0.83  0.00  0.00  0.00  0.00  0.00
  C268                    1.00   0.18  0.00  0.00  0.82  0.00  0.00  0.00  0.00  0.00
  C269                    1.00   0.18  0.00  0.00  0.82  0.00  0.00  0.00  0.00  0.00
  C270                    1.00   0.18  0.00  0.00  0.82  0.00  0.00  0.00  0.00  0.00
  C271                    1.00   0.18  0.00  0.00  0.82  0.00  0.00  0.00  0.00  0.00
  C272                    1.00   0.19  0.00  0.00  0.81  0.00  0.00  0.00  0.00  0.00
  C273                    1.00   0.19  0.00  0.00  0.81  0.00  0.00  0.00  0.00  0.00
  C274                    1.00   0.19  0.00  0.00  0.81  0.00  0.00  0.00  0.00  0.00
  C275                    1.00   0.19  0.00  0.00  0.81  0.00  0.00  0.00  0.00  0.00
  C276                    1.00   0.19  0.00  0.00  0.81  0.00  0.00  0.00  0.00  0.00
  C277                    1.00   0.20  0.00  0.00  0.80  0.00  0.00  0.00  0.00  0.00
  C278                    1.00   0.20  0.00  0.00  0.80  0.00  0.00  0.00  0.00  0.00
  C279                    1.00   0.20  0.00  0.00  0.80  0.00  0.00  0.00  0.00  0.00
  C280                    1.00   0.20  0.00  0.00  0.80  0.00  0.00  0.00  0.00  0.00
  C281                    1.00   0.20  0.00  0.00  0.80  0.00  0.00  0.00  0.00  0.00
  C282                    1.00   0.20  0.00  0.00  0.80  0.00  0.00  0.00  0.00  0.00
  C283                    1.00   0.21  0.00  0.00  0.79  0.00  0.00  0.00  0.00  0.00
  C284                    1.00   0.21  0.00  0.00  0.79  0.00  0.00  0.00  0.00  0.00
  C285                    1.00   0.21  0.00  0.00  0.79  0.00  0.00  0.00  0.00  0.00
  C286                    1.00   0.21  0.00  0.00  0.79  0.00  0.00  0.00  0.24  0.00
  C287                    1.00   0.21  0.00  0.00  0.79  0.00  0.00  0.00  0.23  0.00
  C288                    1.00   0.21  0.00  0.00  0.79  0.00  0.00  0.00  0.00  0.00
  C289                    1.00   0.21  0.00  0.00  0.79  0.00  0.00  0.00  0.00  0.00
  C290                    1.00   0.16  0.06  0.00  0.78  0.00  0.00  0.00  0.00  0.00
  C291                    1.00   0.16  0.00  0.00  0.84  0.00  0.00  0.00  0.00  0.00
  C292                    1.00   0.22  0.00  0.00  0.78  0.00  0.00  0.00  0.00  0.00
  C293                    1.00   0.22  0.00  0.00  0.78  0.00  0.00  0.00  0.00  0.00
  C294                    1.00   0.22  0.00  0.00  0.78  0.00  0.00  0.00  0.00  0.00
  C295                    1.00   0.22  0.00  0.00  0.78  0.00  0.00  0.00  0.00  0.00
  C296                    1.00   0.22  0.00  0.00  0.78  0.00  0.00  0.00  0.00  0.00
  C297                    1.00   0.23  0.00  0.00  0.77  0.00  0.00  0.00  0.00  0.00
  C298                    1.00   0.23  0.00  0.00  0.77  0.00  0.00  0.00  0.00  0.00
  C299                    1.00   0.23  0.00  0.00  0.77  0.00  0.00  0.00  0.00  0.00
  C300                    1.00   0.23  0.00  0.00  0.77  0.00  0.00  0.00  0.00  0.00
  C301                    1.00   0.23  0.00  0.00  0.77  0.00  0.00  0.00  0.00  0.00
  C302                    1.00   0.00  0.00  0.00  1.00  0.00  0.00  0.00  0.00  0.00
  C303                    1.00   0.00  0.00  0.00  1.00  0.00  0.00  0.00  0.00  0.00
  C353                    1.00   0.24  0.00  0.00  0.00  0.00  0.00  0.76  0.00  0.00
  
  
  *************************
  Conduit Surcharge Summary
  *************************
  
  ----------------------------------------------------------------------------
                                                           Hours        Hours 
                         --------- Hours Full --------   Above Full   Capacity
  Conduit                Both Ends  Upstream  Dnstream   Normal Flow   Limited
  ----------------------------------------------------------------------------
  FID4201                     0.01      0.01      0.01      0.11         0.01
  FID4498                     0.01      0.01      1.43      0.01         0.01
  FID4882                     0.01      0.01      1.99      0.01         0.01
  FID4914                     0.01      0.01      2.06      0.01         0.01
  FID4917                     0.01      0.01      0.81      0.01         0.01
  C199                        0.01      0.01      0.01      8.53         0.01
  C200                        0.01      0.01      0.01      8.47         0.01
  C227                        0.01      0.01      0.01      0.47         0.01
  C262                        0.01      0.01      0.63      0.01         0.01
  
  
  ***************************
  Link Pollutant Load Summary
  ***************************
  
  --------------------------------------------------------------
                                 TSS            TP           TDP
  Link                            kg            kg            kg
  --------------------------------------------------------------
  FID1123                      2.100         0.002         0.019
  FID1139                     34.670         0.049         0.138
  FID1148                     93.222         0.095         0.247
  FID1149                     93.158         0.095         0.247
  FID3364                    120.432         0.106         0.291
  FID3671                      9.852         0.001         0.016
  FID3672                     32.433         0.037         0.071
  FID3762                    123.550         0.064         0.168
  FID3765                    170.409         0.101         0.286
  FID4112                     51.768         0.050         0.106
  FID4186                     18.359         0.003         0.020
  FID4187                     11.255         0.003         0.019
  FID4201                     40.008         0.037         0.064
  FID4202                     34.797         0.035         0.062
  FID4203                      0.000         0.000         0.000
  FID4299                      1.729         0.005         0.009
  FID4372                    567.931         0.224         0.283
  FID4498                     71.571         0.076         0.091
  FID4806                   1808.980         1.090         0.719
  FID4807                      0.000         0.000         0.000
  FID4882                      0.000         0.000         0.000
  FID4884                     13.420         0.014         0.077
  FID4914                     31.974         0.015         0.043
  FID4915                      0.000         0.001         0.001
  FID4916                      0.000         0.000         0.000
  FID4917                      0.000         0.000         0.000
  FID5307                      8.077         0.012         0.025
  FID5308                      3.621         0.005         0.009
  FID5312                      4.409         0.011         0.024
  FID5865                    205.501         0.711         0.247
  C9                         182.444         1.040         1.318
  C12                        181.427         1.025         1.299
  C13                        201.038         1.037         1.321
  C14                        131.799         0.683         0.874
  C52                        178.087         0.144         0.379
  C130                         9.228         0.013         0.027
  C131                         6.653         0.012         0.026
  C139                         1.139         0.001         0.002
  C191                       173.786         0.715         0.953
  C193                       173.476         0.697         0.930
  C194                       171.196         0.691         0.926
  C195                       170.791         0.689         0.923
  C196                       164.199         0.717         0.941
  C197                       341.271         0.788         1.206
  C198                       464.634         0.849         1.371
  C199                       466.379         0.847         1.369
  C200                       465.274         0.843         1.365
  C201                       469.396         0.840         1.361
  C202                       478.523         0.839         1.365
  C203                       478.015         0.836         1.361
  C204                       475.684         0.833         1.357
  C205                       551.680         0.928         1.562
  C206                       602.360         0.976         1.665
  C207                       605.782         0.975         1.667
  C208                       621.140         0.971         1.677
  C209                       613.928         0.964         1.665
  C210                       614.314         0.963         1.663
  C211                       613.185         0.961         1.661
  C212                       782.881         1.083         1.962
  C213                       786.081         1.086         1.965
  C214                       786.747         1.085         1.965
  C215                       865.593         1.097         2.033
  C216                       829.410         1.071         1.984
  C217                       864.938         1.104         2.044
  C218                      1041.885         1.245         2.418
  C219                      1045.082         1.245         2.420
  C220                      1046.563         1.242         2.418
  C221                      1077.456         1.239         2.443
  C222                      1140.249         1.302         2.601
  C223                      1222.832         1.403         2.804
  C224                      1236.595         1.408         2.820
  C225                      1245.630         1.398         2.816
  C226                      1245.050         1.394         2.811
  C227                      1306.913         1.405         2.866
  C228                      1297.635         1.375         2.832
  C229                      1448.993         1.444         3.055
  C230                      1448.877         1.447         3.061
  C231                      1465.602         1.452         3.079
  C232                      1455.875         1.442         3.060
  C233                      1497.432         1.449         3.101
  C234                      1468.107         1.429         3.056
  C235                      1478.133         1.442         3.076
  C236                      2044.538         1.665         3.357
  C237                      2061.080         1.670         3.367
  C238                      2214.449         1.782         3.638
  C239                      2204.132         1.774         3.625
  C240                      2196.553         1.770         3.617
  C241                      2199.827         1.775         3.625
  C242                      2209.523         1.787         3.652
  C243                      2269.059         1.804         3.703
  C244                      2244.163         1.780         3.678
  C245                      2246.030         1.779         3.677
  C246                      4146.974         2.923         4.442
  C247                      4066.272         2.867         4.428
  C248                      4101.371         2.882         4.437
  C249                      4049.764         2.852         4.411
  C250                      4050.841         2.857         4.418
  C251                      4053.172         2.857         4.418
  C252                      4169.017         2.960         4.706
  C253                      4198.127         2.973         4.715
  C254                      4213.904         2.979         4.718
  C255                      4207.533         2.973         4.711
  C256                      4262.132         3.038         4.791
  C257                      4248.314         3.029         4.789
  C258                      4249.681         3.029         4.788
  C259                      4283.365         3.046         4.798
  C260                      4248.297         3.025         4.782
  C261                      4269.320         3.042         4.860
  C262                      4314.506         3.062         4.869
  C263                      4279.864         3.040         4.852
  C264                      4271.496         3.033         4.843
  C265                      4464.838         3.732         5.084
  C266                      4481.835         3.744         5.088
  C267                      4476.622         3.739         5.083
  C268                      4494.420         3.751         5.086
  C269                      4463.988         3.725         5.092
  C270                      4483.209         3.740         5.096
  C271                      4466.022         3.724         5.089
  C272                      4462.798         3.721         5.087
  C273                      4573.889         3.830         5.338
  C274                      4570.189         3.825         5.334
  C275                      4566.625         3.820         5.330
  C276                      4565.020         3.817         5.327
  C277                      4561.270         3.813         5.324
  C278                      4560.579         3.812         5.322
  C279                      4562.635         3.812         5.321
  C280                      4557.460         3.807         5.317
  C281                      4590.876         3.854         5.454
  C282                      4593.405         3.856         5.454
  C283                      4599.686         3.867         5.479
  C284                      4600.654         3.867         5.478
  C285                      4602.518         3.868         5.477
  C286                      4604.997         3.869         5.477
  C287                      4605.048         3.867         5.475
  C288                      4603.193         3.865         5.472
  C289                      4602.660         3.863         5.470
  C290                      4603.058         3.863         5.469
  C291                      4598.931         3.858         5.466
  C292                      4621.715         3.879         5.607
  C293                      4620.599         3.878         5.605
  C294                      4621.770         3.878         5.604
  C295                      4618.268         3.874         5.601
  C296                      4619.194         3.874         5.601
  C297                      4621.558         3.876         5.601
  C298                      4621.739         3.875         5.600
  C299                      4619.105         3.872         5.597
  C300                      4620.497         3.872         5.596
  C301                      4618.404         3.870         5.594
  C302                       181.913         1.036         1.313
  C303                       173.975         0.708         0.944
  C353                        17.353         0.017         0.139
  

  Analysis begun on:  Tue Oct 10 17:36:27 2017
  Analysis ended on:  Tue Oct 10 17:36:41 2017
  Total elapsed time: 00:00:14