
  EPA STORM WATER MANAGEMENT MODEL - VERSION 5.1 (Build 5.1.010)
  --------------------------------------------------------------

  WARNING 04: minimum elevation drop used for Conduit C199
  WARNING 04: minimum elevation drop used for Conduit C200
  WARNING 02: maximum depth increased for Node FID1955
  WARNING 02: maximum depth increased for Node FID1960
  WARNING 02: maximum depth increased for Node FID1965
  WARNING 02: maximum depth increased for Node FID1968
  WARNING 02: maximum depth increased for Node FID2244
  WARNING 02: maximum depth increased for Node FID2442
  WARNING 02: maximum depth increased for Node FID2446
  WARNING 02: maximum depth increased for Node FID5504
  WARNING 02: maximum depth increased for Node FID5527
  WARNING 02: maximum depth increased for Node AFID6926
  WARNING 02: maximum depth increased for Node AFID7376
  
  *********************************************************
  NOTE: The summary statistics displayed in this report are
  based on results found at every computational time step,  
  not just on results from each reporting time step.
  *********************************************************
  
  ****************
  Analysis Options
  ****************
  Flow Units ............... CMS
  Process Models:
    Rainfall/Runoff ........ YES
    RDII ................... NO
    Snowmelt ............... NO
    Groundwater ............ NO
    Flow Routing ........... YES
    Ponding Allowed ........ YES
    Water Quality .......... YES
  Infiltration Method ...... GREEN_AMPT
  Flow Routing Method ...... DYNWAVE
  Starting Date ............ MAY-06-2016 15:00:00
  Ending Date .............. MAY-07-2016 00:00:00
  Antecedent Dry Days ...... 0.0
  Report Time Step ......... 00:01:00
  Wet Time Step ............ 00:01:00
  Dry Time Step ............ 01:00:00
  Routing Time Step ........ 5.00 sec
  Variable Time Step ....... YES
  Maximum Trials ........... 8
  Number of Threads ........ 3
  Head Tolerance ........... 0.001500 m
  
  
  **************************        Volume         Depth
  Runoff Quantity Continuity     hectare-m            mm
  **************************     ---------       -------
  Total Precipitation ......         2.583         6.709
  Evaporation Loss .........         0.000         0.000
  Infiltration Loss ........         1.272         3.304
  Surface Runoff ...........         0.745         1.934
  Final Storage ............         0.568         1.475
  Continuity Error (%) .....        -0.057
  
  
  **************************           TSS            TP           TDP
  Runoff Quality Continuity             kg            kg            kg
  **************************    ----------    ----------    ----------
  Initial Buildup ..........         0.000         0.000         0.000
  Surface Buildup ..........     20569.523        13.118         8.382
  Wet Deposition ...........         0.000         0.000         0.000
  Sweeping Removal .........         0.000         0.000         0.000
  Infiltration Loss ........         0.000         0.000         0.000
  BMP Removal ..............         0.841         0.000         0.000
  Surface Runoff ...........      8408.750         4.308         2.454
  Remaining Buildup ........     12159.931         8.809         5.928
  Continuity Error (%) .....         0.000         0.000         0.000
  
  
  **************************        Volume        Volume
  Flow Routing Continuity        hectare-m      10^6 ltr
  **************************     ---------     ---------
  Dry Weather Inflow .......         0.000         0.000
  Wet Weather Inflow .......         0.745         7.447
  Groundwater Inflow .......         0.000         0.000
  RDII Inflow ..............         0.000         0.000
  External Inflow ..........         1.384        13.843
  External Outflow .........         1.518        15.183
  Flooding Loss ............         0.000         0.000
  Evaporation Loss .........         0.000         0.000
  Exfiltration Loss ........         0.000         0.000
  Initial Stored Volume ....         0.000         0.000
  Final Stored Volume ......         0.617         6.171
  Continuity Error (%) .....        -0.307
  
  
  **************************           TSS            TP           TDP
  Quality Routing Continuity            kg            kg            kg
  **************************    ----------    ----------    ----------
  Dry Weather Inflow .......         0.000         0.000         0.000
  Wet Weather Inflow .......      8362.447         4.304         2.453
  Groundwater Inflow .......         0.000         0.000         0.000
  RDII Inflow ..............         0.000         0.000         0.000
  External Inflow ..........       137.985         1.039         1.284
  External Outflow .........      7993.703         4.832         3.156
  Flooding Loss ............         0.000         0.000         0.000
  Exfiltration Loss ........         0.000         0.000         0.000
  Mass Reacted .............         0.000         0.000         0.000
  Initial Stored Mass ......         0.000         0.000         0.000
  Final Stored Mass ........        45.479         0.399         0.579
  Continuity Error (%) .....         5.426         2.086         0.034
  
  
  *************************
  Highest Continuity Errors
  *************************
  Node FID2824 (2.15%)
  Node FID2827 (2.11%)
  Node J72 (1.65%)
  Node J19 (1.52%)
  Node FID2449 (1.46%)
  
  
  ***************************
  Time-Step Critical Elements
  ***************************
  Link C241 (91.22%)
  Link C14 (7.87%)
  
  
  ********************************
  Highest Flow Instability Indexes
  ********************************
  All links are stable.
  
  
  *************************
  Routing Time Step Summary
  *************************
  Minimum Time Step           :     0.59 sec
  Average Time Step           :     0.95 sec
  Maximum Time Step           :     5.00 sec
  Percent in Steady State     :     0.00
  Average Iterations per Step :     2.00
  Percent Not Converging      :     0.00
  
  
  ***************************
  Subcatchment Runoff Summary
  ***************************
  
  --------------------------------------------------------------------------------------------------------
                            Total      Total      Total      Total      Total       Total     Peak  Runoff
                           Precip      Runon       Evap      Infil     Runoff      Runoff   Runoff   Coeff
  Subcatchment                 mm         mm         mm         mm         mm    10^6 ltr      CMS
  --------------------------------------------------------------------------------------------------------
  S0                         5.84       0.00       0.00       5.12       0.46        0.00     0.00   0.078
  S1                         5.84       0.00       0.00       2.86       1.87        0.18     0.05   0.319
  S2                         6.35       0.00       0.00       2.32       2.64        0.45     0.16   0.415
  S3                         5.84       0.00       0.00       3.99       1.17        0.04     0.03   0.200
  S4                         5.84       0.00       0.00       3.05       1.76        0.18     0.12   0.301
  S6                         6.35       0.00       0.00       1.49       3.18        0.06     0.02   0.501
  S7                         6.35       0.00       0.00       1.28       0.49        0.19     0.04   0.077
  S8                         6.35       0.00       0.00       1.50       3.19        0.00     0.00   0.502
  S9                         6.35       0.00       0.00       2.15       2.76        0.00     0.00   0.434
  S10                        6.35       0.00       0.00       2.26       2.69        0.01     0.00   0.424
  S11                        6.35       0.00       0.00       5.11       0.82        0.00     0.00   0.129
  S12                        6.35       0.00       0.00       2.47       2.56        0.00     0.00   0.402
  S13                        6.35       0.00       0.00       2.70       2.39        0.18     0.06   0.377
  S14                        6.35       0.00       0.00       4.61       1.15        0.01     0.00   0.180
  S16                        6.35       0.00       0.00       3.81       2.19        0.12     0.03   0.344
  S17                        6.35       0.00       0.00       2.42       2.57        0.49     0.17   0.405
  S18                        6.35       0.00       0.00       1.82       2.98        0.00     0.00   0.469
  S19                        6.35       0.00       0.00       3.71       1.73        0.04     0.01   0.272
  S20                        6.35       0.00       0.00       2.57       2.49        0.01     0.01   0.392
  S21                        6.35       0.00       0.00       3.46       2.85        1.53     0.41   0.448
  S22                        6.35       0.00       0.00       2.09       2.79        0.00     0.00   0.440
  S23                        6.35       0.00       0.00       4.04       1.52        0.02     0.01   0.239
  S24                        6.35       0.00       0.00       3.85       1.64        0.03     0.01   0.258
  S25                        6.35       0.00       0.00       2.76       2.35        0.03     0.01   0.370
  S27                        6.35       0.00       0.00       3.08       2.15        0.01     0.00   0.338
  S28                        5.84       0.00       0.00       5.83       0.01        0.00     0.00   0.001
  S29                        5.84       0.00       0.00       5.80       0.03        0.00     0.00   0.004
  S30                        6.35       0.00       0.00       6.33       0.01        0.00     0.00   0.002
  S31                        6.35       0.00       0.00       6.34       0.01        0.00     0.00   0.001
  S32                        6.35       0.00       0.00       4.82       1.01        0.00     0.00   0.160
  S33                        6.35       0.00       0.00       1.93       2.90        0.03     0.01   0.456
  S34                        6.35       0.00       0.00       2.94       0.01        0.01     0.00   0.002
  S35                        6.35       0.00       0.00       3.83       1.66        0.01     0.00   0.261
  S36                        6.35       0.00       0.00       5.16       0.78        0.01     0.00   0.123
  S37                        6.35       0.00       0.00       2.23       2.71        0.01     0.01   0.426
  S39                        6.35       0.00       0.00       3.97       1.56        0.23     0.09   0.246
  S40                        6.35       0.00       0.00       4.58       1.16        0.03     0.01   0.183
  S41                        6.35       0.00       0.00       2.54       2.50        0.34     0.12   0.393
  S42                        6.35       0.00       0.00       2.91       2.26        0.23     0.08   0.355
  S43                        6.35       0.00       0.00       4.88       0.97        0.02     0.01   0.153
  S44                        6.35       0.00       0.00       2.97       2.21        0.50     0.17   0.349
  S45                        8.13       0.00       0.00       4.87       2.42        0.00     0.00   0.298
  S47                        8.13       0.00       0.00       3.89       3.13        0.13     0.13   0.385
  S48                        8.13       0.00       0.00       4.49       2.71        0.01     0.01   0.334
  S49                        8.13       0.00       0.00       4.03       3.00        0.56     0.43   0.369
  S51                        8.13       0.00       0.00       7.08       0.78        0.01     0.01   0.096
  S52                        8.13       0.00       0.00       4.32       2.80        0.19     0.17   0.345
  S53                        8.13       0.00       0.00       4.18       2.89        0.40     0.34   0.355
  S54                        8.13       0.00       0.00       5.14       2.17        0.21     0.07   0.267
  S55                        8.13       0.00       0.00       4.33       2.76        0.45     0.14   0.340
  S56                        8.13       0.00       0.00       6.08       1.50        0.00     0.00   0.185
  S57                        8.13       0.00       0.00       3.85       3.12        0.03     0.01   0.384
  S58                        8.13       0.00       0.00       4.64       2.54        0.10     0.03   0.313
  S59                        8.13       0.00       0.00       7.10       0.75        0.02     0.01   0.093
  S60                        8.13       0.00       0.00       5.99       1.56        0.04     0.01   0.192
  S61                        8.13       0.00       0.00       7.24       0.65        0.01     0.00   0.080
  S62                        8.13       0.00       0.00       6.79       0.99        0.03     0.02   0.121
  S63                        6.35       0.00       0.00       5.42       0.61        0.01     0.00   0.096
  S64                        6.35       0.00       0.00       3.15       2.11        0.03     0.01   0.332
  S65                        6.35       0.00       0.00       4.40       1.28        0.22     0.07   0.201
  
  
  ****************************
  Subcatchment Washoff Summary
  ****************************
  
  --------------------------------------------------------------
                                 TSS            TP           TDP
  Subcatchment                    kg            kg            kg
  --------------------------------------------------------------
  S0                           0.445         0.000         0.000
  S1                         335.747         0.192         0.075
  S2                         495.342         0.288         0.143
  S3                          93.052         0.082         0.026
  S4                         307.214         0.194         0.088
  S6                          58.711         0.039         0.016
  S7                          15.192         0.037         0.088
  S8                           0.387         0.000         0.000
  S9                           0.463         0.000         0.000
  S10                          6.915         0.004         0.002
  S11                          0.509         0.000         0.000
  S12                          0.277         0.000         0.000
  S13                        226.777         0.158         0.061
  S14                         12.967         0.004         0.003
  S16                         91.981         0.052         0.041
  S17                        550.603         0.301         0.157
  S18                          0.488         0.000         0.000
  S19                         53.015         0.011         0.013
  S20                         10.500         0.004         0.004
  S21                       1187.578         0.810         0.393
  S22                          3.180         0.001         0.001
  S23                         39.976         0.009         0.009
  S24                         57.017         0.038         0.015
  S25                         32.362         0.006         0.009
  S27                         12.028         0.004         0.004
  S28                          0.000         0.000         0.000
  S29                          0.000         0.000         0.000
  S30                          0.000         0.000         0.000
  S31                          0.000         0.000         0.000
  S32                         12.143         0.002         0.002
  S33                         30.976         0.015         0.010
  S34                         45.864         0.002         0.001
  S35                          8.497         0.003         0.003
  S36                         32.413         0.004         0.005
  S37                         13.495         0.004         0.004
  S39                        407.670         0.180         0.099
  S40                         55.910         0.010         0.011
  S41                        395.973         0.240         0.119
  S42                        302.250         0.134         0.089
  S43                         52.203         0.008         0.008
  S44                        655.380         0.288         0.187
  S45                          0.895         0.000         0.000
  S47                        102.207         0.051         0.032
  S48                          5.559         0.002         0.002
  S49                        508.880         0.223         0.153
  S51                         26.933         0.004         0.005
  S52                        183.115         0.089         0.056
  S53                        399.700         0.230         0.120
  S54                        241.479         0.076         0.069
  S55                        451.490         0.165         0.135
  S56                          0.425         0.000         0.000
  S57                         26.036         0.003         0.007
  S58                        110.161         0.051         0.034
  S59                         65.712         0.028         0.008
  S60                         59.021         0.012         0.013
  S61                         19.637         0.004         0.002
  S62                         56.932         0.010         0.013
  S63                         43.280         0.013         0.006
  S64                         35.749         0.007         0.009
  S65                        466.042         0.215         0.098
  --------------------------------------------------------------
  System                    8408.750         4.308         2.454
  
  
  ******************
  Node Depth Summary
  ******************
  
  ---------------------------------------------------------------------------------
                                 Average  Maximum  Maximum  Time of Max    Reported
                                   Depth    Depth      HGL   Occurrence   Max Depth
  Node                 Type       Meters   Meters   Meters  days hr:min      Meters
  ---------------------------------------------------------------------------------
  FID1936              JUNCTION     0.15     0.36  1376.66     0  04:05        0.11
  FID1955              JUNCTION     0.16     0.30  1376.22     0  04:15        0.09
  FID1960              JUNCTION     0.15     0.25  1376.11     0  04:15        0.08
  FID1965              JUNCTION     0.15     0.24  1376.54     0  04:15        0.07
  FID1968              JUNCTION     0.14     0.20  1376.60     0  04:14        0.06
  FID2239              JUNCTION     0.15     0.26  1374.77     0  04:05        0.08
  FID2241              JUNCTION     0.14     0.19  1373.32     0  04:05        0.06
  FID2242              JUNCTION     0.14     0.21  1374.25     0  04:05        0.06
  FID2244              JUNCTION     0.13     0.18  1374.54     0  04:05        0.06
  FID2440              JUNCTION     0.42     0.63  1374.88     0  04:20        0.19
  FID2442              JUNCTION     0.00     0.00  1375.27     0  00:00        0.00
  FID2446              JUNCTION     0.16     0.44  1376.24     0  04:05        0.13
  FID2447              JUNCTION     0.15     0.39  1376.09     0  04:05        0.12
  FID2455              JUNCTION     0.33     0.59  1374.57     0  04:21        0.18
  FID2711              JUNCTION     0.14     0.22  1370.40     0  04:05        0.07
  FID2719              JUNCTION     0.16     0.38  1370.48     0  04:05        0.12
  FID2720              JUNCTION     0.16     0.33  1370.53     0  04:05        0.10
  FID2824              JUNCTION     0.13     0.18  1371.46     0  04:10        0.05
  FID2827              JUNCTION     0.14     0.22  1371.52     0  04:10        0.07
  FID2828              JUNCTION     0.14     0.22  1371.54     0  04:10        0.07
  FID2832              JUNCTION     0.16     0.28  1370.88     0  04:10        0.09
  FID2833              JUNCTION     0.20     0.43  1371.05     0  04:10        0.13
  FID2839              JUNCTION     0.16     0.23  1371.43     0  04:10        0.07
  FID2873              JUNCTION     0.16     0.26  1370.96     0  04:10        0.08
  FID2964              JUNCTION     0.17     0.27  1371.05     0  04:36        0.08
  FID2965              JUNCTION     0.44     0.79  1371.05     0  04:36        0.24
  FID4584              JUNCTION     0.13     0.25  1371.59     0  04:10        0.07
  FID5068              JUNCTION     0.14     0.19  1375.57     0  04:05        0.06
  FID5072              JUNCTION     0.51     0.80  1374.09     0  04:30        0.24
  FID5140              JUNCTION     0.13     0.17  1373.39     0  03:30        0.05
  FID5435              JUNCTION     0.18     0.37  1373.12     0  03:30        0.11
  FID5437              JUNCTION     0.13     0.17  1373.12     0  04:05        0.05
  FID5503              JUNCTION     0.12     0.16  1371.49     0  04:07        0.05
  FID5504              JUNCTION     0.15     0.23  1371.59     0  04:10        0.07
  FID5527              JUNCTION     0.14     0.20  1372.70     0  04:10        0.06
  FID5568              JUNCTION     0.49     0.78  1373.17     0  04:39        0.24
  FID5784              JUNCTION     0.49     0.77  1372.77     0  04:43        0.24
  FID5785              JUNCTION     0.14     0.23  1374.66     0  04:05        0.07
  AFID6926             JUNCTION     0.15     0.23  1370.03     0  04:15        0.07
  AFID7360             JUNCTION     0.50     0.86  1370.99     0  04:37        0.26
  AFID7363             JUNCTION     0.48     0.85  1371.02     0  04:36        0.26
  AFID7376             JUNCTION     0.18     0.35  1371.58     0  04:10        0.11
  AFID7377             JUNCTION     0.41     0.68  1371.36     0  04:31        0.21
  AFID7705             JUNCTION     0.52     0.62  1375.59     0  04:15        0.19
  AFID7706             JUNCTION     0.58     0.68  1375.59     0  04:15        0.21
  AFID7792             JUNCTION     0.17     0.34  1375.14     0  04:05        0.10
  AFID8223             JUNCTION     0.49     0.77  1372.78     0  04:43        0.24
  J1                   JUNCTION     0.75     0.78  1375.77     0  04:18        0.24
  FID4901              JUNCTION     0.48     0.56  1375.63     0  04:16        0.17
  J9                   JUNCTION     0.64     0.67  1375.76     0  04:18        0.20
  J11                  JUNCTION     0.49     0.52  1375.73     0  04:18        0.16
  J12                  JUNCTION     0.48     0.55  1375.66     0  04:17        0.17
  J13                  JUNCTION     0.48     0.56  1375.64     0  04:16        0.17
  FID4902              JUNCTION     0.50     0.58  1375.63     0  04:16        0.18
  J14                  JUNCTION     0.40     0.54  1375.45     0  04:05        0.16
  J15                  JUNCTION     0.37     0.56  1375.22     0  04:07        0.17
  J16                  JUNCTION     0.38     0.56  1375.20     0  04:07        0.17
  FID2449              JUNCTION     0.42     0.63  1374.95     0  04:23        0.19
  J17                  JUNCTION     0.32     0.58  1374.55     0  04:20        0.18
  J19                  JUNCTION     0.46     0.75  1374.30     0  04:26        0.23
  FID5069              JUNCTION     0.54     0.82  1374.08     0  04:30        0.25
  FID5139              JUNCTION     0.49     0.78  1373.13     0  04:39        0.24
  J24                  JUNCTION     0.50     0.78  1373.15     0  04:39        0.24
  FID4984              JUNCTION     0.51     0.79  1372.75     0  04:43        0.24
  FID2669              JUNCTION     0.36     0.66  1369.10     0  04:39        0.20
  FID2712              JUNCTION     0.38     0.69  1369.88     0  04:36        0.21
  FID2718              JUNCTION     0.39     0.70  1369.94     0  04:35        0.21
  FID2838              JUNCTION     0.56     0.94  1370.88     0  04:36        0.29
  FID2825              JUNCTION     0.61     1.01  1370.92     0  04:37        0.31
  FID2823              JUNCTION     0.66     1.07  1370.94     0  04:37        0.33
  FID5505              JUNCTION     0.56     0.94  1370.97     0  04:36        0.29
  FID5436              JUNCTION     0.52     0.80  1372.13     0  04:34        0.24
  FID5438              JUNCTION     0.46     0.73  1372.16     0  04:36        0.22
  J49                  JUNCTION     0.51     0.60  1375.62     0  04:16        0.18
  J50                  JUNCTION     0.55     0.64  1375.61     0  04:16        0.20
  J51                  JUNCTION     0.60     0.70  1375.60     0  04:15        0.21
  J52                  JUNCTION     0.62     0.72  1375.60     0  04:15        0.22
  J53                  JUNCTION     0.40     0.54  1375.46     0  04:05        0.16
  J54                  JUNCTION     0.40     0.52  1375.48     0  04:20        0.16
  J55                  JUNCTION     0.45     0.55  1375.58     0  04:15        0.17
  J56                  JUNCTION     0.43     0.53  1375.55     0  04:15        0.16
  J57                  JUNCTION     0.41     0.51  1375.53     0  04:21        0.15
  J58                  JUNCTION     0.41     0.52  1375.50     0  04:21        0.16
  FID1935              JUNCTION     0.41     0.55  1375.44     0  04:05        0.17
  J59                  JUNCTION     0.41     0.54  1375.41     0  04:05        0.17
  J60                  JUNCTION     0.40     0.54  1375.36     0  04:07        0.16
  J61                  JUNCTION     0.38     0.53  1375.30     0  04:07        0.16
  J62                  JUNCTION     0.37     0.53  1375.28     0  04:07        0.16
  J63                  JUNCTION     0.38     0.55  1375.24     0  04:07        0.17
  J64                  JUNCTION     0.37     0.55  1375.16     0  04:08        0.17
  J65                  JUNCTION     0.33     0.53  1375.11     0  04:23        0.16
  J66                  JUNCTION     0.41     0.63  1374.84     0  04:21        0.19
  J67                  JUNCTION     0.41     0.62  1374.77     0  04:21        0.19
  J68                  JUNCTION     0.39     0.61  1374.68     0  04:22        0.19
  J69                  JUNCTION     0.53     0.80  1374.53     0  04:21        0.24
  J70                  JUNCTION     0.51     0.78  1374.43     0  04:23        0.24
  J71                  JUNCTION     0.49     0.77  1374.36     0  04:24        0.23
  J72                  JUNCTION     0.52     0.80  1374.15     0  04:31        0.24
  J73                  JUNCTION     0.54     0.82  1374.04     0  04:30        0.25
  J74                  JUNCTION     0.54     0.82  1373.81     0  04:33        0.25
  J75                  JUNCTION     0.55     0.83  1373.67     0  04:34        0.25
  J76                  JUNCTION     0.49     0.78  1373.12     0  04:39        0.24
  J77                  JUNCTION     0.49     0.78  1372.98     0  04:40        0.24
  J78                  JUNCTION     0.49     0.78  1372.85     0  04:42        0.24
  J79                  JUNCTION     0.49     0.77  1372.78     0  04:42        0.24
  J80                  JUNCTION     0.43     0.70  1372.19     0  04:38        0.21
  J81                  JUNCTION     0.50     0.78  1371.77     0  04:38        0.24
  J82                  JUNCTION     0.49     0.77  1371.70     0  04:38        0.23
  J83                  JUNCTION     0.43     0.71  1371.51     0  04:37        0.22
  J84                  JUNCTION     0.39     0.65  1371.29     0  04:33        0.20
  J85                  JUNCTION     0.39     0.67  1371.19     0  04:35        0.20
  J86                  JUNCTION     0.41     0.73  1371.10     0  04:36        0.22
  J87                  JUNCTION     0.47     0.83  1371.02     0  04:36        0.25
  J88                  JUNCTION     0.54     0.93  1370.97     0  04:36        0.28
  J89                  JUNCTION     0.58     0.97  1370.96     0  04:36        0.30
  J90                  JUNCTION     0.54     0.92  1370.87     0  04:37        0.28
  J91                  JUNCTION     0.53     0.92  1370.80     0  04:37        0.28
  J92                  JUNCTION     0.53     0.91  1370.75     0  04:37        0.28
  J93                  JUNCTION     0.53     0.91  1370.64     0  04:35        0.28
  J94                  JUNCTION     0.53     0.91  1370.57     0  04:33        0.28
  J95                  JUNCTION     0.54     0.91  1370.55     0  04:32        0.28
  J96                  JUNCTION     0.53     0.90  1370.46     0  04:33        0.28
  J97                  JUNCTION     0.52     0.89  1370.39     0  04:35        0.27
  J98                  JUNCTION     0.51     0.88  1370.32     0  04:36        0.27
  J99                  JUNCTION     0.49     0.86  1370.25     0  04:36        0.26
  J100                 JUNCTION     0.48     0.83  1370.19     0  04:36        0.25
  J101                 JUNCTION     0.46     0.80  1370.12     0  04:36        0.24
  J102                 JUNCTION     0.39     0.70  1369.97     0  04:35        0.21
  J103                 JUNCTION     0.39     0.70  1369.92     0  04:35        0.21
  J104                 JUNCTION     0.38     0.68  1369.84     0  04:36        0.21
  J105                 JUNCTION     0.37     0.67  1369.79     0  04:36        0.20
  J106                 JUNCTION     0.36     0.65  1369.73     0  04:36        0.20
  J107                 JUNCTION     0.36     0.65  1369.58     0  04:37        0.20
  J108                 JUNCTION     0.36     0.65  1369.45     0  04:37        0.20
  J109                 JUNCTION     0.36     0.65  1369.34     0  04:38        0.20
  J110                 JUNCTION     0.36     0.65  1369.24     0  04:38        0.20
  J111                 JUNCTION     0.36     0.65  1369.13     0  04:39        0.20
  J112                 JUNCTION     0.36     0.65  1368.98     0  04:39        0.20
  J113                 JUNCTION     0.36     0.65  1368.88     0  04:40        0.20
  J114                 JUNCTION     0.36     0.65  1368.77     0  04:40        0.20
  J115                 JUNCTION     0.36     0.65  1368.71     0  04:40        0.20
  J116                 JUNCTION     0.36     0.65  1368.64     0  04:40        0.20
  J117                 JUNCTION     0.36     0.65  1368.53     0  04:41        0.20
  J118                 JUNCTION     0.36     0.65  1368.43     0  04:41        0.20
  J119                 JUNCTION     0.37     0.65  1368.36     0  04:41        0.20
  J120                 JUNCTION     0.38     0.65  1368.25     0  04:41        0.20
  FID2451              JUNCTION     0.41     0.62  1374.91     0  04:21        0.19
  J121                 JUNCTION     0.41     0.69  1371.43     0  04:36        0.21
  J122                 JUNCTION     0.41     0.69  1371.40     0  04:34        0.21
  FID3706              JUNCTION     0.53     0.91  1370.65     0  04:36        0.28
  FID2831              JUNCTION     0.54     0.91  1370.54     0  04:32        0.28
  FID2689              OUTFALL      0.23     0.42  1367.92     0  04:41        0.13
  
  
  *******************
  Node Inflow Summary
  *******************
  
  -------------------------------------------------------------------------------------------------
                                  Maximum  Maximum                  Lateral       Total        Flow
                                  Lateral    Total  Time of Max      Inflow      Inflow     Balance
                                   Inflow   Inflow   Occurrence      Volume      Volume       Error
  Node                 Type           CMS      CMS  days hr:min    10^6 ltr    10^6 ltr     Percent
  -------------------------------------------------------------------------------------------------
  FID1936              JUNCTION     0.175    0.175     0  04:05       0.188       0.188       0.087
  FID1955              JUNCTION     0.144    0.144     0  04:15        0.45        0.45       0.038
  FID1960              JUNCTION     0.066    0.066     0  04:15       0.205       0.205       0.083
  FID1965              JUNCTION     0.033    0.033     0  04:15       0.104       0.104       0.168
  FID1968              JUNCTION     0.010    0.010     0  04:15      0.0312      0.0312       0.562
  FID2239              JUNCTION     0.012    0.012     0  04:05      0.0315      0.0315       1.879
  FID2241              JUNCTION     0.000    0.011     0  04:05           0      0.0295       0.587
  FID2242              JUNCTION     0.011    0.011     0  04:05      0.0297      0.0297       0.603
  FID2244              JUNCTION     0.004    0.004     0  04:05      0.0115      0.0115       1.536
  FID2440              JUNCTION     0.000    1.060     0  04:20           0        14.5       0.278
  FID2442              JUNCTION     0.000    0.000     0  00:00           0           0       0.000 ltr
  FID2446              JUNCTION     0.125    0.125     0  04:05       0.133       0.133       0.150
  FID2447              JUNCTION     0.000    0.125     0  04:05           0       0.133       0.101
  FID2455              JUNCTION     0.082    1.089     0  04:20       0.229        14.5       0.269
  FID2711              JUNCTION     0.000    0.031     0  04:05           0      0.0376       0.405
  FID2719              JUNCTION     0.121    0.121     0  04:05       0.175       0.175       0.248
  FID2720              JUNCTION     0.032    0.032     0  04:05      0.0378      0.0378       0.559
  FID2824              JUNCTION     0.000    0.003     0  04:10    0.000524     0.00778       2.194
  FID2827              JUNCTION     0.000    0.003     0  04:10    0.000594     0.00742       2.152
  FID2828              JUNCTION     0.003    0.003     0  04:10     0.00701     0.00701       2.668
  FID2832              JUNCTION     0.000    0.159     0  04:10           0       0.454       0.046
  FID2833              JUNCTION     0.159    0.159     0  04:10       0.455       0.455       0.054
  FID2839              JUNCTION     0.042    0.042     0  04:10       0.192       0.192       0.110
  FID2873              JUNCTION     0.021    0.021     0  04:10      0.0597      0.0597       0.617
  FID2964              JUNCTION     0.032    0.032     0  04:10       0.122       0.122       0.136
  FID2965              JUNCTION     0.000    1.298     0  04:33           0        15.1       0.360
  FID4584              JUNCTION     0.000    0.001     0  03:26           0    0.000642      29.458
  FID5068              JUNCTION     0.005    0.005     0  04:05      0.0142      0.0142       1.245
  FID5072              JUNCTION     0.086    1.151     0  04:30       0.231        14.3       0.250
  FID5140              JUNCTION     0.001    0.001     0  03:30     0.00501     0.00501       3.307
  FID5435              JUNCTION     0.413    0.413     0  03:30        1.53        1.53       0.012
  FID5437              JUNCTION     0.001    0.001     0  04:05     0.00386     0.00386       4.728
  FID5503              JUNCTION     0.000    0.000     0  04:07    0.000561    0.000561      44.851
  FID5504              JUNCTION     0.064    0.064     0  04:10        0.18        0.18       0.136
  FID5527              JUNCTION     0.014    0.014     0  04:10      0.0373      0.0373       0.452
  FID5568              JUNCTION     0.002    1.140     0  04:35     0.00553          14       0.895
  FID5784              JUNCTION     0.000    1.142     0  04:39           0        13.9       0.125
  FID5785              JUNCTION     0.000    0.012     0  04:05           0      0.0309       0.035
  AFID6926             JUNCTION     0.053    0.053     0  04:15       0.183       0.183       0.096
  AFID7360             JUNCTION     0.000    1.296     0  04:36    0.000339          15       0.265
  AFID7363             JUNCTION     0.000    1.296     0  04:35           0          15       0.127
  AFID7376             JUNCTION     0.166    0.166     0  04:10       0.494       0.495       0.047
  AFID7377             JUNCTION     0.000    1.297     0  04:30           0        15.2       0.134
  AFID7705             JUNCTION     0.000    0.668     0  04:15           0        13.8       0.302
  AFID7706             JUNCTION     0.000    0.605     0  04:17           0        13.7       0.287
  AFID7792             JUNCTION     0.170    0.170     0  04:05         0.5         0.5       0.032
  AFID8223             JUNCTION     0.000    1.141     0  04:40           0        13.9       0.028
  J1                   JUNCTION     0.666    0.666     0  04:15          21          21       0.167
  FID4901              JUNCTION     0.000    0.473     0  04:19           0        13.7       0.266
  J9                   JUNCTION     0.000    0.665     0  04:15           0          21       0.341
  J11                  JUNCTION     0.000    0.663     0  04:15           0        20.9       0.605
  J12                  JUNCTION     0.006    0.667     0  04:21      0.0191        20.8       0.663
  J13                  JUNCTION    -0.220    0.675     0  04:35       -7.13        20.7      -0.205
  FID4902              JUNCTION     0.000    0.479     0  04:20           0        13.7       0.418
  J14                  JUNCTION     0.335    0.788     0  04:05       0.403        13.9       0.224
  J15                  JUNCTION     0.435    1.057     0  04:05       0.561        14.3       0.186
  J16                  JUNCTION     0.007    1.040     0  04:05     0.00782        14.3       0.187
  FID2449              JUNCTION     0.001    0.936     0  04:08     0.00113        14.1       1.482
  J17                  JUNCTION     0.124    1.192     0  04:20        0.34        14.8       0.134
  J19                  JUNCTION     0.011    1.147     0  04:22      0.0296        14.6       1.548
  FID5069              JUNCTION     0.000    1.152     0  04:30           0        14.3       0.222
  FID5139              JUNCTION     0.000    1.135     0  04:37           0        13.9       0.069
  J24                  JUNCTION     0.013    1.135     0  04:37      0.0336        13.9       0.100
  FID4984              JUNCTION     0.000    1.143     0  04:40           0        13.9       1.054
  FID2669              JUNCTION     0.000    1.448     0  04:38           0        15.4       0.092
  FID2712              JUNCTION     0.000    1.431     0  04:35           0        15.4       0.109
  FID2718              JUNCTION     0.000    1.421     0  04:35           0        15.3       0.077
  FID2838              JUNCTION     0.000    1.331     0  04:35           0        15.1       0.227
  FID2825              JUNCTION     0.000    1.308     0  04:37           0          15       0.379
  FID2823              JUNCTION     0.000    1.308     0  04:35           0          15       0.587
  FID5505              JUNCTION     0.000    1.310     0  04:33           0        15.1       0.163
  FID5436              JUNCTION     0.000    1.258     0  04:30           0        15.2       1.012
  FID5438              JUNCTION     0.000    1.145     0  04:44           0        13.7       0.191
  J49                  JUNCTION     0.000    0.481     0  04:19           0        13.6       0.674
  J50                  JUNCTION     0.000    0.486     0  04:34    0.000231        13.5       1.166
  J51                  JUNCTION     0.000    0.502     0  04:34           0        13.4       0.927
  J52                  JUNCTION     0.000    0.513     0  04:34           0        13.2       0.274
  J53                  JUNCTION     0.000    0.671     0  04:15           0        13.5       0.249
  J54                  JUNCTION     0.000    0.669     0  04:15           0        13.6       0.368
  J55                  JUNCTION     0.000    0.667     0  04:15           0        13.8       0.345
  J56                  JUNCTION     0.000    0.666     0  04:15           0        13.7       0.374
  J57                  JUNCTION     0.000    0.666     0  04:15           0        13.7       0.471
  J58                  JUNCTION     0.002    0.668     0  04:16     0.00561        13.6       0.504
  FID1935              JUNCTION     0.000    0.943     0  04:05           0          14       0.288
  J59                  JUNCTION     0.000    0.918     0  04:05           0          14       0.408
  J60                  JUNCTION     0.007    0.878     0  04:05     0.00787        13.9       0.638
  J61                  JUNCTION     0.000    0.808     0  04:06           0        13.9       0.429
  J62                  JUNCTION     0.000    0.798     0  04:08           0        13.8       0.194
  J63                  JUNCTION     0.000    0.801     0  04:08           0        13.8       0.197
  J64                  JUNCTION     0.000    1.021     0  04:05           0        14.3       0.196
  J65                  JUNCTION     0.024    1.018     0  04:05      0.0251        14.3       1.145
  J66                  JUNCTION     0.000    1.053     0  04:20           0        14.4       0.349
  J67                  JUNCTION     0.000    1.046     0  04:20           0        14.4       0.518
  J68                  JUNCTION     0.007    1.040     0  04:21      0.0187        14.3       0.553
  J69                  JUNCTION     0.000    1.187     0  04:20           0        14.8       0.552
  J70                  JUNCTION     0.004    1.175     0  04:20     0.00942        14.7       0.709
  J71                  JUNCTION     0.000    1.157     0  04:21           0        14.6       0.517
  J72                  JUNCTION     0.010    1.129     0  04:25      0.0254        14.4       1.678
  J73                  JUNCTION     0.000    1.151     0  04:30           0        14.3       0.509
  J74                  JUNCTION     0.000    1.148     0  04:30           0        14.2       0.745
  J75                  JUNCTION     0.004    1.143     0  04:32     0.00979        14.1       1.149
  J76                  JUNCTION     0.000    1.135     0  04:38           0        13.9       0.283
  J77                  JUNCTION     0.074    1.147     0  04:37       0.215          14       0.519
  J78                  JUNCTION     0.000    1.144     0  04:38           0          14       0.388
  J79                  JUNCTION     0.000    1.142     0  04:39           0        13.9       0.141
  J80                  JUNCTION     0.010    1.139     0  04:43      0.0249        13.8       0.875
  J81                  JUNCTION     0.002    1.250     0  04:33     0.00436        15.1       1.470
  J82                  JUNCTION     0.000    1.244     0  04:37           0        14.9       0.585
  J83                  JUNCTION     0.000    1.244     0  04:38           0        14.8       0.454
  J84                  JUNCTION     0.000    1.296     0  04:30           0        15.2       0.243
  J85                  JUNCTION     0.000    1.293     0  04:31           0        15.1       0.443
  J86                  JUNCTION     0.000    1.289     0  04:32           0        15.1       0.473
  J87                  JUNCTION     0.003    1.296     0  04:34     0.00671        15.1       0.197
  J88                  JUNCTION     0.000    1.295     0  04:37           0          15       0.294
  J89                  JUNCTION     0.000    1.309     0  04:34           0        15.1       0.454
  J90                  JUNCTION     0.000    1.331     0  04:36           0        15.1       0.166
  J91                  JUNCTION     0.000    1.331     0  04:36           0          15       0.229
  J92                  JUNCTION     0.000    1.331     0  04:37    2.74e-06          15       0.292
  J93                  JUNCTION     0.000    1.336     0  04:38           0          15       0.159
  J94                  JUNCTION     0.000    1.336     0  04:38    4.96e-06          15       0.168
  J95                  JUNCTION     0.000    1.337     0  04:38           0        14.9       0.066
  J96                  JUNCTION     0.000    1.381     0  04:30           0        15.3       0.244
  J97                  JUNCTION     0.000    1.379     0  04:31           0        15.3       0.207
  J98                  JUNCTION     0.000    1.377     0  04:32           0        15.3       0.182
  J99                  JUNCTION     0.000    1.376     0  04:33           0        15.3       0.154
  J100                 JUNCTION     0.000    1.374     0  04:33           0        15.2       0.131
  J101                 JUNCTION     0.000    1.373     0  04:37           0        15.2       0.150
  J102                 JUNCTION     0.000    1.374     0  04:38           0        15.2       0.119
  J103                 JUNCTION     0.000    1.419     0  04:35           0        15.3       0.090
  J104                 JUNCTION     0.000    1.429     0  04:35           0        15.3       0.117
  J105                 JUNCTION     0.000    1.427     0  04:35           0        15.3       0.145
  J106                 JUNCTION     0.000    1.425     0  04:36           0        15.3       0.164
  J107                 JUNCTION     0.000    1.423     0  04:36           0        15.3       0.167
  J108                 JUNCTION     0.000    1.421     0  04:37    1.69e-05        15.2       0.150
  J109                 JUNCTION     0.000    1.420     0  04:37           0        15.2       0.127
  J110                 JUNCTION     0.000    1.419     0  04:38           0        15.2       0.124
  J111                 JUNCTION     0.000    1.418     0  04:38     0.00015        15.2       0.089
  J112                 JUNCTION     0.000    1.447     0  04:38           0        15.3       0.127
  J113                 JUNCTION     0.000    1.446     0  04:39           0        15.3       0.125
  J114                 JUNCTION     0.000    1.446     0  04:39           0        15.3       0.104
  J115                 JUNCTION     0.000    1.445     0  04:40           0        15.3       0.079
  J116                 JUNCTION     0.000    1.445     0  04:40    4.83e-06        15.3       0.105
  J117                 JUNCTION     0.000    1.444     0  04:40           0        15.3       0.128
  J118                 JUNCTION     0.000    1.444     0  04:41           0        15.2       0.111
  J119                 JUNCTION     0.000    1.443     0  04:41           0        15.2       0.114
  J120                 JUNCTION     0.000    1.443     0  04:41           0        15.2       0.132
  FID2451              JUNCTION     0.000    0.931     0  04:24           0          14       0.275
  J121                 JUNCTION     0.005    1.245     0  04:39      0.0132        14.7       0.134
  J122                 JUNCTION     0.000    1.245     0  04:40    0.000597        14.7       0.116
  FID3706              JUNCTION     0.000    1.335     0  04:37           0          15       0.222
  FID2831              JUNCTION     0.000    1.383     0  04:30           0        15.4       0.151
  FID2689              OUTFALL      0.000    1.443     0  04:41           0        15.2       0.000
  
  
  **********************
  Node Surcharge Summary
  **********************
  
  No nodes were surcharged.
  
  
  *********************
  Node Flooding Summary
  *********************
  
  No nodes were flooded.
  
  
  ***********************
  Outfall Loading Summary
  ***********************
  
  -----------------------------------------------------------------------------------------------------
                         Flow       Avg       Max       Total         Total         Total         Total
                         Freq      Flow      Flow      Volume           TSS            TP           TDP
  Outfall Node           Pcnt       CMS       CMS    10^6 ltr            kg            kg            kg
  -----------------------------------------------------------------------------------------------------
  FID2689               76.87     0.802     1.443      15.183      7905.102         4.473         2.727
  -----------------------------------------------------------------------------------------------------
  System                76.87     0.802     1.443      15.183      7905.102         4.473         2.727
  
  
  ********************
  Link Flow Summary
  ********************
  
  -----------------------------------------------------------------------------
                                 Maximum  Time of Max   Maximum    Max/    Max/
                                  |Flow|   Occurrence   |Veloc|    Full    Full
  Link                 Type          CMS  days hr:min     m/sec    Flow   Depth
  -----------------------------------------------------------------------------
  FID1123              CONDUIT     0.021     0  04:10      0.75    0.28    0.57
  FID1139              CONDUIT     0.118     0  04:05      1.67    0.67    0.60
  FID1148              CONDUIT     0.159     0  04:10      1.08    0.31    0.28
  FID1149              CONDUIT     0.159     0  04:10      2.31    0.04    0.31
  FID3364              CONDUIT     0.166     0  04:10      0.77    0.11    0.39
  FID3671              CONDUIT     0.010     0  04:15      1.30    0.06    0.16
  FID3672              CONDUIT     0.033     0  04:15      1.84    0.19    0.30
  FID3762              CONDUIT     0.066     0  04:15      1.27    0.16    0.49
  FID3765              CONDUIT     0.144     0  04:15      2.20    0.32    0.57
  FID4112              CONDUIT     0.175     0  04:05      2.06    0.24    0.33
  FID4186              CONDUIT     0.011     0  04:05      1.11    0.04    0.14
  FID4187              CONDUIT     0.011     0  04:05      1.75    0.02    0.10
  FID4201              CONDUIT     0.125     0  04:05      1.42    1.00    0.72
  FID4202              CONDUIT     0.125     0  04:05      1.67    0.71    0.62
  FID4203              CONDUIT     0.000     0  00:00      0.00    0.00    0.25
  FID4299              CONDUIT     0.005     0  04:05      1.05    0.02    0.09
  FID4372              CONDUIT     0.001     0  03:30      0.01    0.00    0.30
  FID4498              CONDUIT     0.032     0  04:10      0.52    0.11    0.63
  FID4806              CONDUIT     0.413     0  03:30      3.53    0.12    0.23
  FID4807              CONDUIT     0.001     0  04:05      0.80    0.01    0.06
  FID4882              CONDUIT     0.000     0  04:07      0.01    0.00    0.52
  FID4884              CONDUIT     0.064     0  04:10      2.14    0.02    0.13
  FID4914              CONDUIT     0.014     0  04:10      0.72    0.04    0.57
  FID4915              CONDUIT     0.003     0  04:10      0.21    0.06    0.17
  FID4916              CONDUIT     0.003     0  04:10      0.31    0.06    0.14
  FID4917              CONDUIT     0.003     0  04:10      0.83    0.01    0.53
  FID5307              CONDUIT     0.012     0  04:05      0.54    0.16    0.25
  FID5308              CONDUIT     0.004     0  04:05      1.27    0.02    0.09
  FID5312              CONDUIT     0.012     0  04:05      0.69    0.06    0.16
  FID5865              CONDUIT     0.042     0  04:10      1.51    0.02    0.25
  C9                   CHANNEL     0.665     0  04:15      0.60    0.09    0.51
  C12                  CHANNEL     0.664     0  04:35      0.41    0.36    0.62
  C13                  CHANNEL     0.675     0  04:35      0.55    0.37    0.64
  C14                  CHANNEL     0.460     0  04:35      0.55    0.25    0.65
  C52                  CONDUIT     0.170     0  04:05      1.20    0.21    0.54
  C130                 CONDUIT     0.031     0  04:05      0.66    0.45    0.33
  C131                 CONDUIT     0.031     0  04:05      1.65    0.05    0.37
  C139                 CONDUIT     0.001     0  03:26      0.07    0.01    0.39
  C191                 CHANNEL     0.481     0  04:19      0.42    0.26    0.69
  C193                 CHANNEL     0.502     0  04:34      0.33    0.28    0.78
  C194                 CHANNEL     0.513     0  04:34      0.27    0.28    0.83
  C195                 CHANNEL     0.517     0  04:34      0.31    0.13    0.66
  C196                 CONDUIT     0.474     0  04:20      0.40    0.43    0.72
  C197                 CONDUIT     0.607     0  04:17      0.22    0.36    0.93
  C198                 CHANNEL     0.667     0  04:15      0.26    0.16    0.55
  C199                 CHANNEL     0.666     0  04:15      0.27    3.64    0.65
  C200                 CHANNEL     0.666     0  04:15      0.29    3.29    0.62
  C201                 CHANNEL     0.667     0  04:16      0.29    0.25    0.51
  C202                 CHANNEL     0.669     0  04:15      0.29    0.25    0.52
  C203                 CHANNEL     0.671     0  04:15      0.29    0.25    0.53
  C204                 CHANNEL     0.674     0  04:15      0.41    0.25    0.54
  C205                 CONDUIT     0.769     0  04:05      0.29    0.67    0.66
  C206                 CHANNEL     0.918     0  04:05      0.36    0.34    0.55
  C207                 CHANNEL     0.874     0  04:05      0.35    0.32    0.54
  C208                 CHANNEL     0.808     0  04:06      0.33    0.30    0.53
  C209                 CHANNEL     0.798     0  04:08      0.33    0.30    0.53
  C210                 CHANNEL     0.801     0  04:08      0.40    0.31    0.62
  C211                 CHANNEL     0.806     0  04:09      0.39    0.37    0.57
  C212                 CONDUIT     1.033     0  04:05      0.39    0.75    0.68
  C213                 CHANNEL     1.021     0  04:05      0.50    0.46    0.56
  C214                 CHANNEL     1.002     0  04:05      0.52    0.45    0.55
  C215                 CONDUIT     0.936     0  04:08      0.33    0.68    0.71
  C216                 CONDUIT     0.924     0  04:25      0.41    0.86    0.59
  C217                 CONDUIT     0.935     0  04:24      0.35    0.47    0.46
  C218                 CHANNEL     1.053     0  04:20      0.43    0.48    0.64
  C219                 CHANNEL     1.046     0  04:20      0.43    0.47    0.64
  C220                 CHANNEL     1.036     0  04:21      0.44    0.47    0.63
  C221                 CHANNEL     1.041     0  04:23      0.46    0.47    0.61
  C222                 CONDUIT     1.089     0  04:21      0.44    0.91    0.71
  C223                 CHANNEL     1.187     0  04:20      0.55    0.19    0.61
  C224                 CHANNEL     1.173     0  04:20      0.42    0.95    0.92
  C225                 CHANNEL     1.157     0  04:21      0.43    0.94    0.90
  C226                 CHANNEL     1.145     0  04:22      0.47    0.93    0.88
  C227                 CONDUIT     1.126     0  04:25      0.34    1.14    0.94
  C228                 CHANNEL     1.118     0  04:26      0.55    0.57    0.74
  C229                 CONDUIT     1.150     0  04:30      0.27    0.25    0.54
  C230                 CHANNEL     1.151     0  04:30      0.54    0.59    0.76
  C231                 CHANNEL     1.148     0  04:30      0.54    0.59    0.76
  C232                 CHANNEL     1.143     0  04:32      0.53    0.59    0.76
  C233                 CHANNEL     1.140     0  04:35      0.55    0.58    0.74
  C234                 CONDUIT     1.134     0  04:37      0.42    0.59    0.57
  C235                 CHANNEL     1.135     0  04:37      0.57    0.58    0.73
  C236                 CHANNEL     1.135     0  04:38      0.53    0.68    0.81
  C237                 CHANNEL     1.134     0  04:38      0.53    0.68    0.81
  C238                 CHANNEL     1.144     0  04:38      0.55    0.69    0.81
  C239                 CHANNEL     1.142     0  04:39      0.55    0.68    0.80
  C240                 CHANNEL     1.141     0  04:40      0.55    0.67    0.80
  C241                 CHANNEL     1.141     0  04:40      0.68    0.68    0.80
  C242                 CONDUIT     1.142     0  04:40      0.42    0.50    0.64
  C243                 CHANNEL     1.139     0  04:43      0.57    0.68    0.77
  C244                 CHANNEL     1.145     0  04:44      0.68    0.24    0.46
  C245                 CONDUIT     1.146     0  04:44      0.47    0.40    0.60
  C246                 CHANNEL     1.246     0  04:34      0.46    0.50    0.69
  C247                 CHANNEL     1.244     0  04:37      0.48    0.50    0.67
  C248                 CHANNEL     1.244     0  04:38      0.50    0.50    0.65
  C249                 CHANNEL     1.245     0  04:39      0.64    0.63    0.66
  C250                 CONDUIT     1.245     0  04:40      0.57    0.57    0.54
  C251                 CONDUIT     1.245     0  04:40      0.58    0.57    0.53
  C252                 CHANNEL     1.296     0  04:30      0.70    0.65    0.63
  C253                 CHANNEL     1.293     0  04:31      0.50    0.37    0.62
  C254                 CHANNEL     1.289     0  04:32      0.59    0.37    0.66
  C255                 CHANNEL     1.286     0  04:34      0.42    0.37    0.72
  C256                 CHANNEL     1.296     0  04:34      0.40    0.37    0.77
  C257                 CHANNEL     1.296     0  04:35      2.42    0.37    0.79
  C258                 CONDUIT     1.296     0  04:36      0.48    0.60    0.67
  C259                 CHANNEL     1.295     0  04:37      0.41    0.37    0.85
  C260                 CHANNEL     1.296     0  04:37      0.40    0.37    0.88
  C261                 CHANNEL     1.309     0  04:34      3.58    0.37    0.91
  C262                 CHANNEL     1.308     0  04:35      0.42    0.37    0.96
  C263                 CHANNEL     1.308     0  04:37      0.42    0.38    0.66
  C264                 CONDUIT     1.308     0  04:37      0.44    0.85    0.71
  C265                 CHANNEL     1.331     0  04:36      0.50    0.39    0.59
  C266                 CHANNEL     1.331     0  04:36      0.49    0.33    0.64
  C267                 CHANNEL     1.331     0  04:37      0.52    0.33    0.64
  C268                 CHANNEL     1.331     0  04:38      0.49    0.33    0.64
  C269                 CHANNEL     1.336     0  04:38      0.49    0.33    0.64
  C270                 CHANNEL     1.336     0  04:38      0.49    0.33    0.64
  C271                 CHANNEL     1.337     0  04:38      0.49    0.33    0.64
  C272                 CHANNEL     1.337     0  04:38      0.50    0.33    0.64
  C273                 CHANNEL     1.381     0  04:30      0.52    0.34    0.63
  C274                 CHANNEL     1.379     0  04:31      0.52    0.34    0.63
  C275                 CHANNEL     1.377     0  04:32      0.54    0.34    0.62
  C276                 CHANNEL     1.376     0  04:33      0.56    0.34    0.61
  C277                 CHANNEL     1.374     0  04:33      0.59    0.34    0.59
  C278                 CHANNEL     1.373     0  04:37      0.63    0.34    0.57
  C279                 CHANNEL     1.374     0  04:38      0.73    0.34    0.52
  C280                 CHANNEL     1.376     0  04:38      0.58    0.59    0.71
  C281                 CHANNEL     1.419     0  04:35      0.59    0.61    0.71
  C282                 CHANNEL     1.418     0  04:35      0.60    0.60    0.71
  C283                 CHANNEL     1.429     0  04:35      0.61    0.61    0.70
  C284                 CHANNEL     1.427     0  04:35      0.62    0.61    0.69
  C285                 CHANNEL     1.425     0  04:36      0.64    0.61    0.67
  C286                 CHANNEL     1.423     0  04:36      0.73    0.43    0.66
  C287                 CHANNEL     1.421     0  04:37      0.73    0.43    0.66
  C288                 CHANNEL     1.420     0  04:37      0.72    0.43    0.66
  C289                 CHANNEL     1.419     0  04:38      0.72    0.43    0.66
  C290                 CHANNEL     1.418     0  04:38      0.72    0.43    0.66
  C291                 CHANNEL     1.418     0  04:38      0.72    0.43    0.67
  C292                 CHANNEL     1.447     0  04:38      0.73    0.44    0.67
  C293                 CHANNEL     1.446     0  04:39      0.73    0.44    0.67
  C294                 CHANNEL     1.446     0  04:39      0.73    0.44    0.67
  C295                 CHANNEL     1.445     0  04:40      0.73    0.44    0.67
  C296                 CHANNEL     1.445     0  04:40      0.73    0.44    0.67
  C297                 CHANNEL     1.444     0  04:40      0.73    0.44    0.67
  C298                 CHANNEL     1.444     0  04:41      0.73    0.44    0.67
  C299                 CHANNEL     1.443     0  04:41      0.73    0.44    0.67
  C300                 CHANNEL     1.443     0  04:41      0.73    0.44    0.67
  C301                 CHANNEL     1.443     0  04:41      1.17    0.32    0.42
  C302                 CHANNEL     0.663     0  04:15      0.52    0.13    0.47
  C303                 CHANNEL     0.486     0  04:34      0.37    0.27    0.72
  C353                 CONDUIT     0.053     0  04:15      2.00    0.01    0.08
  
  
  ***************************
  Flow Classification Summary
  ***************************
  
  -------------------------------------------------------------------------------------
                      Adjusted    ---------- Fraction of Time in Flow Class ---------- 
                       /Actual         Up    Down  Sub   Sup   Up    Down  Norm  Inlet 
  Conduit               Length    Dry  Dry   Dry   Crit  Crit  Crit  Crit  Ltd   Ctrl  
  -------------------------------------------------------------------------------------
  FID1123                 1.00   0.12  0.00  0.00  0.37  0.00  0.00  0.51  0.27  0.00
  FID1139                 1.00   0.14  0.00  0.00  0.20  0.02  0.00  0.64  0.15  0.00
  FID1148                 1.00   0.11  0.00  0.00  0.47  0.00  0.00  0.41  0.00  0.00
  FID1149                 1.00   0.12  0.00  0.00  0.72  0.03  0.00  0.13  0.60  0.00
  FID3364                 1.00   0.12  0.00  0.00  0.83  0.00  0.00  0.05  0.66  0.00
  FID3671                 1.00   0.14  0.00  0.00  0.00  0.00  0.00  0.86  0.00  0.00
  FID3672                 1.00   0.14  0.00  0.00  0.00  0.00  0.00  0.86  0.00  0.00
  FID3762                 1.00   0.02  0.13  0.00  0.81  0.05  0.00  0.00  0.69  0.00
  FID3765                 1.00   0.01  0.13  0.00  0.68  0.18  0.00  0.00  0.69  0.00
  FID4112                 1.00   0.14  0.00  0.00  0.00  0.00  0.00  0.86  0.00  0.00
  FID4186                 1.00   0.15  0.00  0.00  0.23  0.30  0.00  0.32  0.00  0.00
  FID4187                 1.00   0.17  0.00  0.00  0.00  0.00  0.00  0.83  0.00  0.00
  FID4201                 1.00   0.14  0.00  0.00  0.62  0.00  0.00  0.25  0.42  0.00
  FID4202                 1.00   0.14  0.00  0.00  0.00  0.00  0.00  0.86  0.00  0.00
  FID4203                 1.00   0.15  0.85  0.00  0.00  0.00  0.00  0.00  0.00  0.00
  FID4299                 1.00   0.15  0.00  0.00  0.00  0.00  0.00  0.85  0.00  0.00
  FID4372                 1.00   0.08  0.13  0.00  0.79  0.00  0.00  0.00  0.63  0.00
  FID4498                 1.00   0.12  0.00  0.00  0.82  0.00  0.00  0.06  0.53  0.00
  FID4806                 1.00   0.15  0.00  0.00  0.00  0.00  0.00  0.85  0.00  0.00
  FID4807                 1.00   0.20  0.00  0.00  0.00  0.00  0.00  0.80  0.00  0.00
  FID4882                 1.00   0.22  0.53  0.00  0.25  0.00  0.00  0.00  0.59  0.00
  FID4884                 1.00   0.12  0.00  0.00  0.23  0.04  0.00  0.61  0.19  0.00
  FID4914                 1.00   0.12  0.00  0.00  0.86  0.00  0.00  0.02  0.69  0.00
  FID4915                 1.00   0.13  0.00  0.00  0.83  0.00  0.00  0.05  0.51  0.00
  FID4916                 1.00   0.17  0.00  0.00  0.60  0.00  0.00  0.23  0.11  0.00
  FID4917                 1.00   0.21  0.00  0.00  0.60  0.00  0.00  0.19  0.53  0.00
  FID5307                 1.00   0.15  0.00  0.00  0.73  0.00  0.00  0.12  0.43  0.00
  FID5308                 1.00   0.15  0.00  0.00  0.00  0.00  0.00  0.85  0.00  0.00
  FID5312                 1.00   0.16  0.00  0.00  0.00  0.00  0.00  0.84  0.00  0.00
  FID5865                 1.00   0.12  0.00  0.00  0.39  0.03  0.00  0.45  0.31  0.00
  C9                      1.00   0.00  0.00  0.00  1.00  0.00  0.00  0.00  0.00  0.00
  C12                     1.00   0.00  0.00  0.00  1.00  0.00  0.00  0.00  0.00  0.00
  C13                     1.00   0.00  0.00  0.00  1.00  0.00  0.00  0.00  0.00  0.00
  C14                     1.00   0.00  0.00  0.00  1.00  0.00  0.00  0.00  0.00  0.00
  C52                     1.00   0.04  0.10  0.00  0.85  0.00  0.00  0.00  0.68  0.00
  C130                    1.00   0.14  0.00  0.00  0.59  0.00  0.00  0.27  0.00  0.00
  C131                    1.00   0.15  0.00  0.00  0.47  0.02  0.00  0.37  0.37  0.00
  C139                    1.00   0.12  0.54  0.00  0.33  0.00  0.01  0.00  0.49  0.00
  C191                    1.00   0.00  0.00  0.00  1.00  0.00  0.00  0.00  0.00  0.00
  C193                    1.00   0.00  0.00  0.00  1.00  0.00  0.00  0.00  0.00  0.00
  C194                    1.00   0.01  0.00  0.00  0.99  0.00  0.00  0.00  0.00  0.00
  C195                    1.00   0.01  0.00  0.00  0.99  0.00  0.00  0.00  0.00  0.00
  C196                    1.00   0.00  0.00  0.00  1.00  0.00  0.00  0.00  0.00  0.00
  C197                    1.00   0.01  0.00  0.00  0.99  0.00  0.00  0.00  0.00  0.00
  C198                    1.00   0.01  0.00  0.00  0.99  0.00  0.00  0.00  0.00  0.00
  C199                    1.00   0.01  0.00  0.00  0.99  0.00  0.00  0.00  0.00  0.00
  C200                    1.00   0.01  0.00  0.00  0.99  0.00  0.00  0.00  0.00  0.00
  C201                    1.00   0.01  0.00  0.00  0.99  0.00  0.00  0.00  0.00  0.00
  C202                    1.00   0.01  0.00  0.00  0.99  0.00  0.00  0.00  0.00  0.00
  C203                    1.00   0.02  0.00  0.00  0.98  0.00  0.00  0.00  0.00  0.00
  C204                    1.00   0.02  0.00  0.00  0.98  0.00  0.00  0.00  0.00  0.00
  C205                    1.00   0.02  0.00  0.00  0.98  0.00  0.00  0.00  0.00  0.00
  C206                    1.00   0.02  0.00  0.00  0.98  0.00  0.00  0.00  0.00  0.00
  C207                    1.00   0.02  0.00  0.00  0.98  0.00  0.00  0.00  0.00  0.00
  C208                    1.00   0.02  0.00  0.00  0.98  0.00  0.00  0.00  0.00  0.00
  C209                    1.00   0.02  0.00  0.00  0.98  0.00  0.00  0.00  0.00  0.00
  C210                    1.00   0.02  0.00  0.00  0.98  0.00  0.00  0.00  0.00  0.00
  C211                    1.00   0.03  0.00  0.00  0.97  0.00  0.00  0.00  0.00  0.00
  C212                    1.00   0.03  0.00  0.00  0.97  0.00  0.00  0.00  0.00  0.00
  C213                    1.00   0.03  0.00  0.00  0.97  0.00  0.00  0.00  0.00  0.00
  C214                    1.00   0.03  0.00  0.00  0.97  0.00  0.00  0.00  0.00  0.00
  C215                    1.00   0.03  0.00  0.00  0.97  0.00  0.00  0.00  0.59  0.00
  C216                    1.00   0.03  0.00  0.00  0.97  0.00  0.00  0.00  0.00  0.00
  C217                    1.00   0.03  0.00  0.00  0.97  0.00  0.00  0.00  0.00  0.00
  C218                    1.00   0.03  0.00  0.00  0.97  0.00  0.00  0.00  0.00  0.00
  C219                    1.00   0.04  0.00  0.00  0.96  0.00  0.00  0.00  0.00  0.00
  C220                    1.00   0.04  0.00  0.00  0.96  0.00  0.00  0.00  0.00  0.00
  C221                    1.00   0.04  0.00  0.00  0.96  0.00  0.00  0.00  0.00  0.00
  C222                    1.00   0.05  0.00  0.00  0.95  0.00  0.00  0.00  0.00  0.00
  C223                    1.00   0.05  0.00  0.00  0.95  0.00  0.00  0.00  0.01  0.00
  C224                    1.00   0.05  0.00  0.00  0.95  0.00  0.00  0.00  0.00  0.00
  C225                    1.00   0.05  0.00  0.00  0.95  0.00  0.00  0.00  0.00  0.00
  C226                    1.00   0.05  0.00  0.00  0.95  0.00  0.00  0.00  0.00  0.00
  C227                    1.00   0.05  0.00  0.00  0.95  0.00  0.00  0.00  0.00  0.00
  C228                    1.00   0.06  0.00  0.00  0.94  0.00  0.00  0.00  0.00  0.00
  C229                    1.00   0.06  0.00  0.00  0.94  0.00  0.00  0.00  0.00  0.00
  C230                    1.00   0.06  0.00  0.00  0.94  0.00  0.00  0.00  0.00  0.00
  C231                    1.00   0.07  0.00  0.00  0.93  0.00  0.00  0.00  0.00  0.00
  C232                    1.00   0.07  0.00  0.00  0.93  0.00  0.00  0.00  0.00  0.00
  C233                    1.00   0.07  0.00  0.00  0.93  0.00  0.00  0.00  0.00  0.00
  C234                    1.00   0.07  0.00  0.00  0.93  0.00  0.00  0.00  0.00  0.00
  C235                    1.00   0.07  0.00  0.00  0.93  0.00  0.00  0.00  0.00  0.00
  C236                    1.00   0.08  0.00  0.00  0.92  0.00  0.00  0.00  0.00  0.00
  C237                    1.00   0.08  0.00  0.00  0.92  0.00  0.00  0.00  0.00  0.00
  C238                    1.00   0.08  0.00  0.00  0.92  0.00  0.00  0.00  0.00  0.00
  C239                    1.00   0.08  0.00  0.00  0.92  0.00  0.00  0.00  0.00  0.00
  C240                    1.00   0.08  0.00  0.00  0.92  0.00  0.00  0.00  0.00  0.00
  C241                    1.00   0.08  0.00  0.00  0.92  0.00  0.00  0.00  0.00  0.00
  C242                    1.00   0.09  0.00  0.00  0.91  0.00  0.00  0.00  0.00  0.00
  C243                    1.00   0.09  0.00  0.00  0.91  0.00  0.00  0.00  0.04  0.00
  C244                    1.00   0.09  0.00  0.00  0.91  0.00  0.00  0.00  0.00  0.00
  C245                    1.00   0.09  0.00  0.00  0.91  0.00  0.00  0.00  0.00  0.00
  C246                    1.00   0.10  0.00  0.00  0.90  0.00  0.00  0.00  0.15  0.00
  C247                    1.00   0.11  0.00  0.00  0.89  0.00  0.00  0.00  0.00  0.00
  C248                    1.00   0.12  0.00  0.00  0.88  0.00  0.00  0.00  0.00  0.00
  C249                    1.00   0.11  0.03  0.00  0.86  0.00  0.00  0.00  0.01  0.00
  C250                    1.00   0.11  0.00  0.00  0.89  0.00  0.00  0.00  0.02  0.00
  C251                    1.00   0.11  0.00  0.00  0.89  0.00  0.00  0.00  0.01  0.00
  C252                    1.00   0.12  0.00  0.00  0.88  0.00  0.00  0.00  0.01  0.00
  C253                    1.00   0.12  0.00  0.00  0.88  0.00  0.00  0.00  0.00  0.00
  C254                    1.00   0.13  0.00  0.00  0.87  0.00  0.00  0.00  0.00  0.00
  C255                    1.00   0.12  0.03  0.00  0.85  0.00  0.00  0.00  0.02  0.00
  C256                    1.00   0.11  0.01  0.00  0.88  0.00  0.00  0.00  0.02  0.00
  C257                    1.00   0.11  0.00  0.00  0.88  0.01  0.00  0.00  0.00  0.00
  C258                    1.00   0.11  0.01  0.00  0.88  0.00  0.00  0.00  0.01  0.00
  C259                    1.00   0.11  0.00  0.00  0.89  0.00  0.00  0.00  0.06  0.00
  C260                    1.00   0.12  0.00  0.00  0.88  0.00  0.00  0.00  0.01  0.00
  C261                    1.00   0.12  0.00  0.00  0.88  0.00  0.00  0.00  0.04  0.00
  C262                    1.00   0.12  0.00  0.00  0.88  0.00  0.00  0.00  0.02  0.00
  C263                    1.00   0.13  0.00  0.00  0.87  0.00  0.00  0.00  0.02  0.00
  C264                    1.00   0.12  0.00  0.00  0.88  0.00  0.00  0.00  0.02  0.00
  C265                    1.00   0.12  0.03  0.00  0.84  0.00  0.00  0.00  0.00  0.00
  C266                    1.00   0.16  0.00  0.00  0.84  0.00  0.00  0.00  0.00  0.00
  C267                    1.00   0.12  0.09  0.00  0.79  0.00  0.00  0.00  0.00  0.00
  C268                    1.00   0.12  0.00  0.00  0.88  0.00  0.00  0.00  0.08  0.00
  C269                    1.00   0.12  0.00  0.00  0.88  0.00  0.00  0.00  0.01  0.00
  C270                    1.00   0.11  0.02  0.00  0.87  0.00  0.00  0.00  0.07  0.00
  C271                    1.00   0.11  0.00  0.00  0.89  0.00  0.00  0.00  0.00  0.00
  C272                    1.00   0.12  0.00  0.00  0.88  0.00  0.00  0.00  0.00  0.00
  C273                    1.00   0.12  0.00  0.00  0.88  0.00  0.00  0.00  0.03  0.00
  C274                    1.00   0.12  0.00  0.00  0.88  0.00  0.00  0.00  0.03  0.00
  C275                    1.00   0.13  0.00  0.00  0.87  0.00  0.00  0.00  0.02  0.00
  C276                    1.00   0.14  0.00  0.00  0.86  0.00  0.00  0.00  0.02  0.00
  C277                    1.00   0.16  0.00  0.00  0.84  0.00  0.00  0.00  0.00  0.00
  C278                    1.00   0.17  0.00  0.00  0.83  0.00  0.00  0.00  0.00  0.00
  C279                    1.00   0.14  0.04  0.00  0.82  0.00  0.00  0.00  0.01  0.00
  C280                    1.00   0.14  0.00  0.00  0.86  0.00  0.00  0.00  0.03  0.00
  C281                    1.00   0.14  0.00  0.00  0.86  0.00  0.00  0.00  0.04  0.00
  C282                    1.00   0.14  0.00  0.00  0.86  0.00  0.00  0.00  0.04  0.00
  C283                    1.00   0.14  0.00  0.00  0.86  0.00  0.00  0.00  0.03  0.00
  C284                    1.00   0.15  0.00  0.00  0.85  0.00  0.00  0.00  0.03  0.00
  C285                    1.00   0.15  0.00  0.00  0.85  0.00  0.00  0.00  0.02  0.00
  C286                    1.00   0.16  0.00  0.00  0.84  0.00  0.00  0.00  0.02  0.00
  C287                    1.00   0.13  0.04  0.00  0.83  0.00  0.00  0.00  0.01  0.00
  C288                    1.00   0.13  0.00  0.00  0.87  0.00  0.00  0.00  0.00  0.00
  C289                    1.00   0.19  0.00  0.00  0.81  0.00  0.00  0.00  0.00  0.00
  C290                    1.00   0.13  0.08  0.00  0.79  0.00  0.00  0.00  0.02  0.00
  C291                    1.00   0.13  0.00  0.00  0.87  0.00  0.00  0.00  0.05  0.00
  C292                    1.00   0.14  0.00  0.00  0.86  0.00  0.00  0.00  0.03  0.00
  C293                    1.00   0.15  0.00  0.00  0.85  0.00  0.00  0.00  0.02  0.00
  C294                    1.00   0.15  0.00  0.00  0.85  0.00  0.00  0.00  0.02  0.00
  C295                    1.00   0.16  0.00  0.00  0.84  0.00  0.00  0.00  0.02  0.00
  C296                    1.00   0.14  0.03  0.00  0.83  0.00  0.00  0.00  0.02  0.00
  C297                    1.00   0.14  0.00  0.00  0.86  0.00  0.00  0.00  0.01  0.00
  C298                    1.00   0.19  0.00  0.00  0.81  0.00  0.00  0.00  0.01  0.00
  C299                    1.00   0.20  0.00  0.00  0.80  0.00  0.00  0.00  0.01  0.00
  C300                    1.00   0.21  0.00  0.00  0.79  0.00  0.00  0.00  0.02  0.00
  C301                    1.00   0.22  0.00  0.00  0.78  0.00  0.00  0.00  0.00  0.00
  C302                    1.00   0.00  0.00  0.00  1.00  0.00  0.00  0.00  0.00  0.00
  C303                    1.00   0.00  0.00  0.00  1.00  0.00  0.00  0.00  0.00  0.00
  C353                    1.00   0.14  0.00  0.00  0.00  0.00  0.00  0.86  0.00  0.00
  
  
  *************************
  Conduit Surcharge Summary
  *************************
  
  ----------------------------------------------------------------------------
                                                           Hours        Hours 
                         --------- Hours Full --------   Above Full   Capacity
  Conduit                Both Ends  Upstream  Dnstream   Normal Flow   Limited
  ----------------------------------------------------------------------------
  FID4201                     0.01      0.01      0.01      0.01         0.01
  FID4498                     0.01      0.01      1.93      0.01         0.01
  FID4882                     0.01      0.01      2.53      0.01         0.01
  FID4914                     0.01      0.01      2.90      0.01         0.01
  FID4917                     0.01      0.01      0.82      0.01         0.01
  C199                        0.01      0.01      0.01      8.52         0.01
  C200                        0.01      0.01      0.01      8.46         0.01
  C227                        0.01      0.01      0.01      0.58         0.01
  C262                        0.01      0.01      0.46      0.01         0.01
  
  
  ***************************
  Link Pollutant Load Summary
  ***************************
  
  --------------------------------------------------------------
                                 TSS            TP           TDP
  Link                            kg            kg            kg
  --------------------------------------------------------------
  FID1123                     57.162         0.039         0.016
  FID1139                    305.781         0.193         0.087
  FID1148                    491.547         0.287         0.142
  FID1149                    491.110         0.286         0.143
  FID3364                    553.786         0.304         0.160
  FID3671                     24.197         0.003         0.007
  FID3672                    109.381         0.050         0.034
  FID3762                    241.273         0.075         0.069
  FID3765                    451.331         0.164         0.135
  FID4112                    177.821         0.088         0.056
  FID4186                     30.783         0.006         0.008
  FID4187                     29.798         0.005         0.008
  FID4201                     97.561         0.050         0.031
  FID4202                     92.626         0.049         0.031
  FID4203                      0.000         0.000         0.000
  FID4299                      5.609         0.003         0.004
  FID4372                      0.000         0.000         0.000
  FID4498                     93.440         0.053         0.042
  FID4806                   1188.979         0.810         0.393
  FID4807                      0.000         0.001         0.001
  FID4882                      0.187         0.000         0.000
  FID4884                    226.420         0.157         0.061
  FID4914                     53.015         0.012         0.014
  FID4915                      0.647         0.004         0.002
  FID4916                      0.151         0.003         0.002
  FID4917                      0.040         0.002         0.002
  FID5307                     49.953         0.037         0.015
  FID5308                      6.675         0.004         0.004
  FID5312                     48.421         0.036         0.015
  FID5865                     15.260         0.037         0.089
  C9                         196.680         1.047         1.291
  C12                        195.177         1.029         1.269
  C13                        259.421         1.050         1.270
  C14                        170.478         0.691         0.840
  C52                        652.852         0.288         0.187
  C130                        84.661         0.078         0.025
  C131                        83.483         0.077         0.025
  C139                         0.337         0.002         0.001
  C191                       303.735         0.737         0.871
  C193                       303.900         0.717         0.844
  C194                       301.019         0.711         0.841
  C195                       300.523         0.709         0.838
  C196                       279.816         0.738         0.869
  C197                       751.985         0.870         0.969
  C198                       993.074         0.943         1.035
  C199                       995.207         0.939         1.030
  C200                       993.867         0.936         1.026
  C201                       995.833         0.931         1.018
  C202                      1011.855         0.930         1.017
  C203                      1012.581         0.927         1.012
  C204                      1007.530         0.924         1.011
  C205                      1412.077         1.153         1.128
  C206                      1588.059         1.239         1.180
  C207                      1597.396         1.238         1.174
  C208                      1626.924         1.237         1.172
  C209                      1614.806         1.230         1.169
  C210                      1615.398         1.228         1.166
  C211                      1613.628         1.226         1.164
  C212                      2122.540         1.447         1.315
  C213                      2127.241         1.447         1.315
  C214                      2129.092         1.446         1.313
  C215                      2262.445         1.468         1.307
  C216                      2185.795         1.435         1.295
  C217                      2280.612         1.482         1.322
  C218                      2929.404         1.767         1.506
  C219                      2939.708         1.766         1.502
  C220                      2946.350         1.764         1.495
  C221                      3004.024         1.768         1.498
  C222                      3275.127         1.890         1.581
  C223                      3678.918         2.131         1.698
  C224                      3720.262         2.142         1.694
  C225                      3741.722         2.141         1.690
  C226                      3740.718         2.136         1.684
  C227                      3882.249         2.164         1.672
  C228                      3825.375         2.123         1.663
  C229                      4231.618         2.299         1.758
  C230                      4233.346         2.300         1.760
  C231                      4279.947         2.312         1.755
  C232                      4255.387         2.297         1.744
  C233                      4359.941         2.318         1.739
  C234                      4275.909         2.280         1.726
  C235                      4303.005         2.292         1.735
  C236                      4300.636         2.291         1.734
  C237                      4324.278         2.297         1.730
  C238                      4789.207         2.507         1.822
  C239                      4773.763         2.499         1.817
  C240                      4762.476         2.493         1.814
  C241                      4768.593         2.497         1.818
  C242                      4824.693         2.535         1.831
  C243                      4954.959         2.560         1.825
  C244                      4917.383         2.541         1.827
  C245                      4919.996         2.541         1.824
  C246                      6188.601         3.391         2.214
  C247                      6149.544         3.359         2.204
  C248                      6177.696         3.364         2.200
  C249                      6136.084         3.348         2.190
  C250                      6139.169         3.351         2.192
  C251                      6166.776         3.354         2.191
  C252                      6702.900         3.652         2.348
  C253                      6727.645         3.659         2.347
  C254                      6734.438         3.658         2.342
  C255                      6726.304         3.650         2.335
  C256                      6804.441         3.694         2.369
  C257                      6792.693         3.687         2.366
  C258                      6794.964         3.686         2.364
  C259                      6829.027         3.696         2.365
  C260                      6796.215         3.682         2.356
  C261                      7031.633         3.841         2.416
  C262                      7098.135         3.861         2.417
  C263                      7055.737         3.839         2.403
  C264                      7048.766         3.835         2.398
  C265                      7045.523         3.864         2.482
  C266                      7069.989         3.871         2.482
  C267                      7065.298         3.867         2.478
  C268                      7092.719         3.874         2.478
  C269                      7077.776         3.880         2.480
  C270                      7216.412         3.900         2.484
  C271                      7305.291         3.914         2.484
  C272                      7343.342         3.941         2.489
  C273                      7626.278         4.197         2.626
  C274                      7575.298         4.175         2.617
  C275                      7539.988         4.156         2.609
  C276                      7518.317         4.144         2.604
  C277                      7488.732         4.129         2.597
  C278                      7477.102         4.123         2.594
  C279                      7470.383         4.121         2.592
  C280                      7459.740         4.108         2.587
  C281                      7753.344         4.290         2.670
  C282                      7790.192         4.303         2.673
  C283                      7865.387         4.372         2.695
  C284                      7865.661         4.371         2.695
  C285                      7872.599         4.376         2.696
  C286                      7842.929         4.364         2.693
  C287                      7816.785         4.353         2.688
  C288                      7786.058         4.336         2.681
  C289                      7771.697         4.329         2.678
  C290                      7764.018         4.327         2.676
  C291                      7705.217         4.301         2.667
  C292                      8094.425         4.522         2.750
  C293                      8062.883         4.511         2.746
  C294                      8060.552         4.514         2.745
  C295                      8002.887         4.490         2.737
  C296                      8004.768         4.493         2.738
  C297                      8019.591         4.505         2.740
  C298                      8005.165         4.504         2.739
  C299                      7954.212         4.488         2.733
  C300                      7984.652         4.505         2.737
  C301                      7905.102         4.473         2.727
  C302                       196.080         1.042         1.285
  C303                       304.010         0.729         0.860
  C353                       335.332         0.192         0.075
  

  Analysis begun on:  Tue Oct 10 17:33:11 2017
  Analysis ended on:  Tue Oct 10 17:33:24 2017
  Total elapsed time: 00:00:13