
  EPA STORM WATER MANAGEMENT MODEL - VERSION 5.1 (Build 5.1.010)
  --------------------------------------------------------------

  WARNING 04: minimum elevation drop used for Conduit C199
  WARNING 04: minimum elevation drop used for Conduit C200
  WARNING 02: maximum depth increased for Node FID1955
  WARNING 02: maximum depth increased for Node FID1960
  WARNING 02: maximum depth increased for Node FID1965
  WARNING 02: maximum depth increased for Node FID1968
  WARNING 02: maximum depth increased for Node FID2244
  WARNING 02: maximum depth increased for Node FID2442
  WARNING 02: maximum depth increased for Node FID2446
  WARNING 02: maximum depth increased for Node FID5504
  WARNING 02: maximum depth increased for Node FID5527
  WARNING 02: maximum depth increased for Node AFID6926
  WARNING 02: maximum depth increased for Node AFID7376
  
  *********************************************************
  NOTE: The summary statistics displayed in this report are
  based on results found at every computational time step,  
  not just on results from each reporting time step.
  *********************************************************
  
  ****************
  Analysis Options
  ****************
  Flow Units ............... CMS
  Process Models:
    Rainfall/Runoff ........ YES
    RDII ................... NO
    Snowmelt ............... NO
    Groundwater ............ NO
    Flow Routing ........... YES
    Ponding Allowed ........ YES
    Water Quality .......... YES
  Infiltration Method ...... GREEN_AMPT
  Flow Routing Method ...... DYNWAVE
  Starting Date ............ MAY-06-2016 15:00:00
  Ending Date .............. MAY-07-2016 00:00:00
  Antecedent Dry Days ...... 0.0
  Report Time Step ......... 00:01:00
  Wet Time Step ............ 00:01:00
  Dry Time Step ............ 01:00:00
  Routing Time Step ........ 5.00 sec
  Variable Time Step ....... YES
  Maximum Trials ........... 8
  Number of Threads ........ 3
  Head Tolerance ........... 0.001500 m
  
  
  **************************        Volume         Depth
  Runoff Quantity Continuity     hectare-m            mm
  **************************     ---------       -------
  Total Precipitation ......         2.583         6.709
  Evaporation Loss .........         0.000         0.000
  Infiltration Loss ........         1.107         2.875
  Surface Runoff ...........         0.968         2.513
  Final Storage ............         0.510         1.324
  Continuity Error (%) .....        -0.044
  
  
  **************************           TSS            TP           TDP
  Runoff Quality Continuity             kg            kg            kg
  **************************    ----------    ----------    ----------
  Initial Buildup ..........         0.000         0.000         0.000
  Surface Buildup ..........     17077.875         8.630         8.277
  Wet Deposition ...........         0.000         0.000         0.000
  Sweeping Removal .........         0.000         0.000         0.000
  Infiltration Loss ........         0.000         0.000         0.000
  BMP Removal ..............         0.823         0.000         0.000
  Surface Runoff ...........      8233.780         3.438         3.270
  Remaining Buildup ........      8843.272         5.192         5.006
  Continuity Error (%) .....         0.000         0.000         0.000
  
  
  **************************        Volume        Volume
  Flow Routing Continuity        hectare-m      10^6 ltr
  **************************     ---------     ---------
  Dry Weather Inflow .......         0.000         0.000
  Wet Weather Inflow .......         0.968         9.677
  Groundwater Inflow .......         0.000         0.000
  RDII Inflow ..............         0.000         0.000
  External Inflow ..........         1.384        13.843
  External Outflow .........         1.763        17.629
  Flooding Loss ............         0.000         0.000
  Evaporation Loss .........         0.000         0.000
  Exfiltration Loss ........         0.000         0.000
  Initial Stored Volume ....         0.000         0.000
  Final Stored Volume ......         0.595         5.953
  Continuity Error (%) .....        -0.270
  
  
  **************************           TSS            TP           TDP
  Quality Routing Continuity            kg            kg            kg
  **************************    ----------    ----------    ----------
  Dry Weather Inflow .......         0.000         0.000         0.000
  Wet Weather Inflow .......      7990.612         3.433         3.245
  Groundwater Inflow .......         0.000         0.000         0.000
  RDII Inflow ..............         0.000         0.000         0.000
  External Inflow ..........       137.985         1.039         1.284
  External Outflow .........      7682.984         4.080         3.941
  Flooding Loss ............         0.000         0.000         0.000
  Exfiltration Loss ........         0.000         0.000         0.000
  Mass Reacted .............         0.000         0.000         0.000
  Initial Stored Mass ......         0.000         0.000         0.000
  Final Stored Mass ........        47.138         0.387         0.555
  Continuity Error (%) .....         4.902         0.094         0.735
  
  
  *************************
  Highest Continuity Errors
  *************************
  Node J72 (1.42%)
  Node FID2824 (1.36%)
  Node J81 (1.32%)
  Node FID2449 (1.32%)
  Node J19 (1.31%)
  
  
  ***************************
  Time-Step Critical Elements
  ***************************
  Link C241 (91.78%)
  Link C14 (7.35%)
  
  
  ********************************
  Highest Flow Instability Indexes
  ********************************
  All links are stable.
  
  
  *************************
  Routing Time Step Summary
  *************************
  Minimum Time Step           :     0.54 sec
  Average Time Step           :     0.93 sec
  Maximum Time Step           :     5.00 sec
  Percent in Steady State     :     0.00
  Average Iterations per Step :     2.00
  Percent Not Converging      :     0.00
  
  
  ***************************
  Subcatchment Runoff Summary
  ***************************
  
  --------------------------------------------------------------------------------------------------------
                            Total      Total      Total      Total      Total       Total     Peak  Runoff
                           Precip      Runon       Evap      Infil     Runoff      Runoff   Runoff   Coeff
  Subcatchment                 mm         mm         mm         mm         mm    10^6 ltr      CMS
  --------------------------------------------------------------------------------------------------------
  S0                         5.84       0.00       0.00       4.89       0.70        0.00     0.00   0.120
  S1                         5.84       0.00       0.00       1.93       2.86        0.28     0.09   0.489
  S2                         6.35       0.00       0.00       1.03       3.99        0.69     0.22   0.629
  S3                         5.84       0.00       0.00       3.41       1.79        0.06     0.05   0.306
  S4                         5.84       0.00       0.00       2.17       2.69        0.27     0.19   0.461
  S6                         6.35       0.00       0.00      -0.11       4.82        0.09     0.03   0.759
  S7                         6.35       0.00       0.00       3.85       1.69        0.66     0.19   0.266
  S8                         6.35       0.00       0.00      -0.11       4.83        0.00     0.00   0.761
  S9                         6.35       0.00       0.00       0.81       4.18        0.00     0.00   0.658
  S10                        6.35       0.00       0.00       0.95       4.08        0.01     0.00   0.642
  S11                        6.35       0.00       0.00       4.71       1.24        0.00     0.00   0.196
  S12                        6.35       0.00       0.00       1.23       3.87        0.00     0.00   0.609
  S13                        6.35       0.00       0.00       1.53       3.62        0.27     0.09   0.570
  S14                        6.35       0.00       0.00       4.05       1.73        0.01     0.00   0.273
  S16                        6.35       0.00       0.00       1.08       3.03        0.17     0.05   0.477
  S17                        6.35       0.00       0.00       1.16       3.89        0.75     0.24   0.613
  S18                        6.35       0.00       0.00       0.37       4.52        0.00     0.00   0.711
  S19                        6.35       0.00       0.00       2.87       2.62        0.06     0.02   0.413
  S20                        6.35       0.00       0.00       1.35       3.77        0.02     0.01   0.594
  S21                        6.35       0.00       0.00       3.56       0.74        0.40     0.09   0.117
  S22                        6.35       0.00       0.00       0.73       4.24        0.01     0.00   0.667
  S23                        6.35       0.00       0.00       3.30       2.30        0.04     0.01   0.362
  S24                        6.35       0.00       0.00       3.05       2.49        0.05     0.02   0.392
  S25                        6.35       0.00       0.00       1.61       3.57        0.05     0.01   0.561
  S27                        6.35       0.00       0.00       2.03       3.26        0.02     0.01   0.513
  S28                        5.84       0.00       0.00       5.83       0.01        0.00     0.00   0.002
  S29                        5.84       0.00       0.00       5.79       0.04        0.00     0.00   0.007
  S30                        6.35       0.00       0.00       6.32       0.02        0.00     0.00   0.003
  S31                        6.35       0.00       0.00       6.34       0.01        0.00     0.00   0.001
  S32                        6.35       0.00       0.00       4.33       1.53        0.01     0.00   0.241
  S33                        6.35       0.00       0.00       0.52       4.40        0.05     0.02   0.692
  S34                        6.35       0.00       0.00       3.27       0.11        0.04     0.01   0.017
  S35                        6.35       0.00       0.00       3.02       2.51        0.01     0.00   0.396
  S36                        6.35       0.00       0.00       4.78       1.19        0.01     0.01   0.187
  S37                        6.35       0.00       0.00       0.91       4.11        0.02     0.01   0.647
  S39                        6.35       0.00       0.00       3.20       2.37        0.35     0.12   0.373
  S40                        6.35       0.00       0.00       4.01       1.76        0.04     0.01   0.277
  S41                        6.35       0.00       0.00       1.32       3.78        0.51     0.17   0.596
  S42                        6.35       0.00       0.00       1.80       3.42        0.35     0.12   0.539
  S43                        6.35       0.00       0.00       4.40       1.47        0.03     0.01   0.231
  S44                        6.35       0.00       0.00       1.89       3.35        0.76     0.24   0.528
  S45                        8.13       0.00       0.00       3.77       3.57        0.00     0.00   0.439
  S47                        8.13       0.00       0.00       2.47       4.61        0.20     0.17   0.567
  S48                        8.13       0.00       0.00       3.26       3.99        0.01     0.01   0.491
  S49                        8.13       0.00       0.00       2.65       4.42        0.83     0.51   0.544
  S51                        8.13       0.00       0.00       6.73       1.15        0.01     0.01   0.142
  S52                        8.13       0.00       0.00       3.04       4.14        0.28     0.23   0.509
  S53                        8.13       0.00       0.00       2.86       4.26        0.59     0.40   0.524
  S54                        8.13       0.00       0.00       4.14       3.22        0.30     0.09   0.396
  S55                        8.13       0.00       0.00       3.06       4.09        0.67     0.20   0.503
  S56                        8.13       0.00       0.00       5.40       2.23        0.00     0.00   0.274
  S57                        8.13       0.00       0.00       2.41       4.62        0.05     0.01   0.568
  S58                        8.13       0.00       0.00       3.47       3.76        0.15     0.05   0.463
  S59                        8.13       0.00       0.00       6.75       1.11        0.03     0.01   0.137
  S60                        8.13       0.00       0.00       5.27       2.31        0.06     0.02   0.284
  S61                        8.13       0.00       0.00       6.94       0.96        0.01     0.00   0.118
  S62                        8.13       0.00       0.00       6.34       1.45        0.04     0.03   0.179
  S63                        6.35       0.00       0.00       5.12       0.93        0.01     0.01   0.146
  S64                        6.35       0.00       0.00       2.12       3.19        0.04     0.02   0.503
  S65                        6.35       0.00       0.00       3.77       1.94        0.33     0.11   0.305
  
  
  ****************************
  Subcatchment Washoff Summary
  ****************************
  
  --------------------------------------------------------------
                                 TSS            TP           TDP
  Subcatchment                    kg            kg            kg
  --------------------------------------------------------------
  S0                           0.194         0.000         0.000
  S1                         367.403         0.022         0.061
  S2                         529.787         0.083         0.093
  S3                         116.451         0.012         0.006
  S4                         348.065         0.038         0.050
  S6                          66.672         0.003         0.008
  S7                         323.873         1.115         0.740
  S8                           0.464         0.000         0.000
  S9                           0.558         0.000         0.000
  S10                          8.235         0.003         0.001
  S11                          0.596         0.000         0.000
  S12                          0.327         0.000         0.000
  S13                        261.754         0.015         0.028
  S14                          8.211         0.008         0.005
  S16                         76.736         0.070         0.039
  S17                        567.990         0.099         0.112
  S18                          0.553         0.000         0.000
  S19                         33.549         0.021         0.020
  S20                          9.192         0.007         0.004
  S21                        888.855         0.572         0.792
  S22                          3.532         0.002         0.001
  S23                         15.705         0.018         0.015
  S24                         65.086         0.011         0.009
  S25                         15.267         0.012         0.012
  S27                          9.955         0.008         0.004
  S28                          0.000         0.000         0.000
  S29                          0.000         0.000         0.000
  S30                          0.000         0.000         0.000
  S31                          0.000         0.000         0.000
  S32                          6.012         0.004         0.005
  S33                         31.854         0.011         0.008
  S34                        227.439         0.033         0.002
  S35                          6.495         0.005         0.003
  S36                         15.900         0.010         0.013
  S37                          9.337         0.007         0.005
  S39                        344.962         0.112         0.108
  S40                         25.575         0.022         0.021
  S41                        436.565         0.081         0.075
  S42                        294.624         0.069         0.078
  S43                         23.584         0.018         0.020
  S44                        615.831         0.156         0.172
  S45                          0.792         0.001         0.000
  S47                         96.787         0.036         0.026
  S48                          5.408         0.004         0.002
  S49                        458.032         0.137         0.135
  S51                         10.157         0.009         0.009
  S52                        179.597         0.047         0.044
  S53                        434.917         0.076         0.079
  S54                        173.475         0.090         0.080
  S55                        373.052         0.131         0.136
  S56                          0.527         0.000         0.000
  S57                         14.236         0.007         0.010
  S58                        111.079         0.031         0.029
  S59                         68.888         0.016         0.014
  S60                         23.842         0.026         0.022
  S61                         11.832         0.007         0.007
  S62                         21.641         0.023         0.022
  S63                         32.229         0.009         0.010
  S64                         12.933         0.015         0.013
  S65                        447.167         0.127         0.122
  --------------------------------------------------------------
  System                    8233.780         3.438         3.270
  
  
  ******************
  Node Depth Summary
  ******************
  
  ---------------------------------------------------------------------------------
                                 Average  Maximum  Maximum  Time of Max    Reported
                                   Depth    Depth      HGL   Occurrence   Max Depth
  Node                 Type       Meters   Meters   Meters  days hr:min      Meters
  ---------------------------------------------------------------------------------
  FID1936              JUNCTION     0.16     0.36  1376.66     0  04:05        0.11
  FID1955              JUNCTION     0.17     0.31  1376.23     0  04:15        0.09
  FID1960              JUNCTION     0.15     0.26  1376.12     0  04:15        0.08
  FID1965              JUNCTION     0.15     0.25  1376.55     0  04:15        0.08
  FID1968              JUNCTION     0.14     0.20  1376.60     0  04:15        0.06
  FID2239              JUNCTION     0.15     0.26  1374.77     0  04:05        0.08
  FID2241              JUNCTION     0.13     0.19  1373.32     0  04:05        0.06
  FID2242              JUNCTION     0.14     0.21  1374.25     0  04:05        0.06
  FID2244              JUNCTION     0.13     0.18  1374.54     0  04:05        0.06
  FID2440              JUNCTION     0.43     0.72  1374.97     0  04:22        0.22
  FID2442              JUNCTION     0.00     0.00  1375.27     0  00:00        0.00
  FID2446              JUNCTION     0.16     0.47  1376.27     0  04:05        0.14
  FID2447              JUNCTION     0.16     0.40  1376.10     0  04:05        0.12
  FID2455              JUNCTION     0.36     0.77  1374.75     0  04:30        0.23
  FID2711              JUNCTION     0.14     0.23  1370.41     0  04:05        0.07
  FID2719              JUNCTION     0.17     0.42  1370.52     0  04:05        0.13
  FID2720              JUNCTION     0.16     0.35  1370.55     0  04:05        0.11
  FID2824              JUNCTION     0.13     0.18  1371.46     0  04:10        0.05
  FID2827              JUNCTION     0.14     0.22  1371.52     0  04:10        0.07
  FID2828              JUNCTION     0.14     0.22  1371.54     0  04:10        0.07
  FID2832              JUNCTION     0.17     0.29  1370.89     0  04:10        0.09
  FID2833              JUNCTION     0.21     0.46  1371.08     0  04:10        0.14
  FID2839              JUNCTION     0.17     0.30  1371.50     0  04:10        0.09
  FID2873              JUNCTION     0.16     0.27  1370.97     0  04:10        0.08
  FID2964              JUNCTION     0.18     0.32  1371.10     0  04:42        0.10
  FID2965              JUNCTION     0.46     0.84  1371.10     0  04:42        0.25
  FID4584              JUNCTION     0.13     0.26  1371.60     0  04:10        0.08
  FID5068              JUNCTION     0.14     0.19  1375.57     0  04:05        0.06
  FID5072              JUNCTION     0.53     0.85  1374.15     0  04:31        0.26
  FID5140              JUNCTION     0.14     0.19  1373.41     0  03:30        0.06
  FID5435              JUNCTION     0.16     0.26  1373.01     0  04:05        0.08
  FID5437              JUNCTION     0.13     0.17  1373.12     0  04:05        0.05
  FID5503              JUNCTION     0.12     0.16  1371.49     0  03:47        0.05
  FID5504              JUNCTION     0.15     0.24  1371.60     0  04:10        0.07
  FID5527              JUNCTION     0.14     0.21  1372.71     0  04:10        0.06
  FID5568              JUNCTION     0.51     0.84  1373.24     0  04:37        0.26
  FID5784              JUNCTION     0.51     0.85  1372.85     0  04:37        0.26
  FID5785              JUNCTION     0.14     0.23  1374.66     0  04:05        0.07
  AFID6926             JUNCTION     0.15     0.24  1370.04     0  04:15        0.07
  AFID7360             JUNCTION     0.51     0.91  1371.04     0  04:42        0.28
  AFID7363             JUNCTION     0.50     0.90  1371.07     0  04:42        0.27
  AFID7376             JUNCTION     0.19     0.37  1371.60     0  04:10        0.11
  AFID7377             JUNCTION     0.42     0.72  1371.40     0  04:40        0.22
  AFID7705             JUNCTION     0.52     0.66  1375.62     0  04:15        0.20
  AFID7706             JUNCTION     0.57     0.71  1375.63     0  04:15        0.22
  AFID7792             JUNCTION     0.18     0.36  1375.16     0  04:05        0.11
  AFID8223             JUNCTION     0.51     0.85  1372.85     0  04:37        0.26
  J1                   JUNCTION     0.74     0.78  1375.77     0  04:17        0.24
  FID4901              JUNCTION     0.48     0.59  1375.66     0  04:16        0.18
  J9                   JUNCTION     0.63     0.67  1375.76     0  04:17        0.20
  J11                  JUNCTION     0.48     0.53  1375.74     0  04:17        0.16
  J12                  JUNCTION     0.48     0.57  1375.68     0  04:16        0.17
  J13                  JUNCTION     0.47     0.58  1375.66     0  04:16        0.18
  FID4902              JUNCTION     0.49     0.61  1375.65     0  04:16        0.19
  J14                  JUNCTION     0.40     0.58  1375.50     0  04:05        0.18
  J15                  JUNCTION     0.38     0.62  1375.29     0  04:07        0.19
  J16                  JUNCTION     0.39     0.63  1375.27     0  04:07        0.19
  FID2449              JUNCTION     0.43     0.72  1375.04     0  04:23        0.22
  J17                  JUNCTION     0.35     0.77  1374.74     0  04:30        0.24
  J19                  JUNCTION     0.49     0.99  1374.53     0  04:33        0.30
  FID5069              JUNCTION     0.56     0.88  1374.14     0  04:32        0.27
  FID5139              JUNCTION     0.52     0.85  1373.20     0  04:37        0.26
  J24                  JUNCTION     0.52     0.85  1373.22     0  04:37        0.26
  FID4984              JUNCTION     0.53     0.87  1372.83     0  04:37        0.26
  FID2669              JUNCTION     0.38     0.70  1369.14     0  04:41        0.21
  FID2712              JUNCTION     0.40     0.74  1369.93     0  04:37        0.22
  FID2718              JUNCTION     0.41     0.75  1369.99     0  04:37        0.23
  FID2838              JUNCTION     0.58     0.98  1370.92     0  04:41        0.30
  FID2825              JUNCTION     0.63     1.06  1370.96     0  04:42        0.32
  FID2823              JUNCTION     0.68     1.11  1370.99     0  04:42        0.34
  FID5505              JUNCTION     0.58     0.99  1371.02     0  04:42        0.30
  FID5436              JUNCTION     0.53     0.84  1372.17     0  04:39        0.26
  FID5438              JUNCTION     0.46     0.78  1372.21     0  04:39        0.24
  J49                  JUNCTION     0.51     0.63  1375.65     0  04:16        0.19
  J50                  JUNCTION     0.55     0.67  1375.64     0  04:15        0.21
  J51                  JUNCTION     0.60     0.74  1375.63     0  04:15        0.22
  J52                  JUNCTION     0.61     0.75  1375.63     0  04:15        0.23
  J53                  JUNCTION     0.40     0.58  1375.50     0  04:06        0.18
  J54                  JUNCTION     0.40     0.57  1375.52     0  04:06        0.17
  J55                  JUNCTION     0.45     0.58  1375.61     0  04:15        0.18
  J56                  JUNCTION     0.43     0.56  1375.59     0  04:15        0.17
  J57                  JUNCTION     0.41     0.54  1375.57     0  04:21        0.17
  J58                  JUNCTION     0.40     0.56  1375.53     0  04:07        0.17
  FID1935              JUNCTION     0.41     0.59  1375.48     0  04:05        0.18
  J59                  JUNCTION     0.41     0.59  1375.46     0  04:06        0.18
  J60                  JUNCTION     0.40     0.59  1375.41     0  04:07        0.18
  J61                  JUNCTION     0.38     0.59  1375.36     0  04:08        0.18
  J62                  JUNCTION     0.37     0.59  1375.34     0  04:08        0.18
  J63                  JUNCTION     0.39     0.62  1375.31     0  04:07        0.19
  J64                  JUNCTION     0.38     0.62  1375.24     0  04:08        0.19
  J65                  JUNCTION     0.34     0.61  1375.19     0  04:09        0.19
  J66                  JUNCTION     0.43     0.72  1374.94     0  04:23        0.22
  J67                  JUNCTION     0.43     0.73  1374.88     0  04:24        0.22
  J68                  JUNCTION     0.41     0.74  1374.81     0  04:28        0.23
  J69                  JUNCTION     0.56     1.00  1374.73     0  04:30        0.31
  J70                  JUNCTION     0.55     0.99  1374.65     0  04:31        0.30
  J71                  JUNCTION     0.53     0.99  1374.59     0  04:32        0.30
  J72                  JUNCTION     0.54     0.86  1374.21     0  04:32        0.26
  J73                  JUNCTION     0.56     0.88  1374.10     0  04:32        0.27
  J74                  JUNCTION     0.56     0.88  1373.86     0  04:35        0.27
  J75                  JUNCTION     0.57     0.88  1373.73     0  04:36        0.27
  J76                  JUNCTION     0.52     0.85  1373.19     0  04:37        0.26
  J77                  JUNCTION     0.52     0.85  1373.06     0  04:36        0.26
  J78                  JUNCTION     0.52     0.85  1372.92     0  04:36        0.26
  J79                  JUNCTION     0.51     0.85  1372.86     0  04:37        0.26
  J80                  JUNCTION     0.44     0.76  1372.24     0  04:39        0.23
  J81                  JUNCTION     0.51     0.82  1371.81     0  04:43        0.25
  J82                  JUNCTION     0.50     0.81  1371.74     0  04:44        0.25
  J83                  JUNCTION     0.43     0.76  1371.56     0  04:43        0.23
  J84                  JUNCTION     0.40     0.69  1371.33     0  04:41        0.21
  J85                  JUNCTION     0.40     0.71  1371.24     0  04:42        0.22
  J86                  JUNCTION     0.42     0.77  1371.15     0  04:42        0.24
  J87                  JUNCTION     0.49     0.88  1371.07     0  04:42        0.27
  J88                  JUNCTION     0.56     0.97  1371.02     0  04:42        0.30
  J89                  JUNCTION     0.60     1.02  1371.01     0  04:42        0.31
  J90                  JUNCTION     0.56     0.96  1370.91     0  04:41        0.29
  J91                  JUNCTION     0.55     0.96  1370.84     0  04:41        0.29
  J92                  JUNCTION     0.55     0.96  1370.79     0  04:41        0.29
  J93                  JUNCTION     0.55     0.96  1370.68     0  04:41        0.29
  J94                  JUNCTION     0.55     0.95  1370.61     0  04:40        0.29
  J95                  JUNCTION     0.56     0.95  1370.59     0  04:39        0.29
  J96                  JUNCTION     0.55     0.95  1370.50     0  04:40        0.29
  J97                  JUNCTION     0.54     0.94  1370.43     0  04:40        0.29
  J98                  JUNCTION     0.53     0.92  1370.37     0  04:40        0.28
  J99                  JUNCTION     0.52     0.90  1370.30     0  04:40        0.28
  J100                 JUNCTION     0.50     0.88  1370.24     0  04:40        0.27
  J101                 JUNCTION     0.48     0.85  1370.17     0  04:40        0.26
  J102                 JUNCTION     0.41     0.75  1370.02     0  04:38        0.23
  J103                 JUNCTION     0.41     0.74  1369.97     0  04:37        0.23
  J104                 JUNCTION     0.40     0.73  1369.89     0  04:38        0.22
  J105                 JUNCTION     0.39     0.71  1369.84     0  04:38        0.22
  J106                 JUNCTION     0.38     0.69  1369.76     0  04:38        0.21
  J107                 JUNCTION     0.38     0.69  1369.62     0  04:39        0.21
  J108                 JUNCTION     0.38     0.69  1369.48     0  04:39        0.21
  J109                 JUNCTION     0.38     0.69  1369.37     0  04:40        0.21
  J110                 JUNCTION     0.38     0.69  1369.27     0  04:40        0.21
  J111                 JUNCTION     0.38     0.69  1369.17     0  04:41        0.21
  J112                 JUNCTION     0.38     0.70  1369.02     0  04:41        0.21
  J113                 JUNCTION     0.38     0.70  1368.92     0  04:41        0.21
  J114                 JUNCTION     0.38     0.70  1368.81     0  04:42        0.21
  J115                 JUNCTION     0.38     0.69  1368.75     0  04:42        0.21
  J116                 JUNCTION     0.38     0.69  1368.68     0  04:42        0.21
  J117                 JUNCTION     0.38     0.69  1368.57     0  04:43        0.21
  J118                 JUNCTION     0.38     0.69  1368.46     0  04:43        0.21
  J119                 JUNCTION     0.38     0.69  1368.39     0  04:43        0.21
  J120                 JUNCTION     0.40     0.68  1368.28     0  04:43        0.21
  FID2451              JUNCTION     0.43     0.71  1374.99     0  04:22        0.22
  J121                 JUNCTION     0.41     0.73  1371.47     0  04:42        0.22
  J122                 JUNCTION     0.42     0.73  1371.44     0  04:41        0.22
  FID3706              JUNCTION     0.55     0.96  1370.69     0  04:41        0.29
  FID2831              JUNCTION     0.56     0.95  1370.58     0  04:39        0.29
  FID2689              OUTFALL      0.25     0.46  1367.96     0  04:43        0.14
  
  
  *******************
  Node Inflow Summary
  *******************
  
  -------------------------------------------------------------------------------------------------
                                  Maximum  Maximum                  Lateral       Total        Flow
                                  Lateral    Total  Time of Max      Inflow      Inflow     Balance
                                   Inflow   Inflow   Occurrence      Volume      Volume       Error
  Node                 Type           CMS      CMS  days hr:min    10^6 ltr    10^6 ltr     Percent
  -------------------------------------------------------------------------------------------------
  FID1936              JUNCTION     0.227    0.227     0  04:05       0.277       0.277       0.060
  FID1955              JUNCTION     0.199    0.199     0  04:15       0.666       0.666       0.026
  FID1960              JUNCTION     0.091    0.091     0  04:15       0.304       0.304       0.056
  FID1965              JUNCTION     0.046    0.046     0  04:15       0.153       0.153       0.114
  FID1968              JUNCTION     0.014    0.014     0  04:15      0.0461      0.0461       0.379
  FID2239              JUNCTION     0.016    0.016     0  04:05      0.0477      0.0477       0.637
  FID2241              JUNCTION     0.000    0.015     0  04:05           0      0.0448       0.388
  FID2242              JUNCTION     0.015    0.015     0  04:05       0.045       0.045       0.396
  FID2244              JUNCTION     0.006    0.006     0  04:05      0.0175      0.0175       1.007
  FID2440              JUNCTION     0.000    1.366     0  04:09           0        15.9       0.244
  FID2442              JUNCTION     0.000    0.000     0  00:00           0           0       0.000 ltr
  FID2446              JUNCTION     0.167    0.167     0  04:05       0.196       0.196       0.088
  FID2447              JUNCTION     0.000    0.166     0  04:05           0       0.196       0.082
  FID2455              JUNCTION     0.115    1.403     0  04:11       0.348          16       0.233
  FID2711              JUNCTION     0.000    0.047     0  04:05           0      0.0576       0.264
  FID2719              JUNCTION     0.187    0.187     0  04:05       0.268       0.268       0.188
  FID2720              JUNCTION     0.048    0.048     0  04:05      0.0578      0.0578       0.345
  FID2824              JUNCTION     0.000    0.004     0  04:10    0.000794      0.0121       1.376
  FID2827              JUNCTION     0.000    0.004     0  04:10      0.0009      0.0113       0.447
  FID2828              JUNCTION     0.004    0.004     0  04:10      0.0106      0.0106       1.893
  FID2832              JUNCTION     0.000    0.223     0  04:10           0       0.688       0.026
  FID2833              JUNCTION     0.223    0.223     0  04:10       0.689       0.689       0.034
  FID2839              JUNCTION     0.187    0.187     0  04:10       0.662       0.662       0.045
  FID2873              JUNCTION     0.030    0.030     0  04:10      0.0904      0.0904       0.524
  FID2964              JUNCTION     0.051    0.051     0  04:20       0.169       0.169       0.113
  FID2965              JUNCTION     0.000    1.518     0  04:41           0        16.5       0.314
  FID4584              JUNCTION     0.000    0.002     0  03:40           0    0.000624      27.631
  FID5068              JUNCTION     0.007    0.007     0  04:05      0.0215      0.0215       0.818
  FID5072              JUNCTION     0.119    1.390     0  04:30       0.351        16.2       0.213
  FID5140              JUNCTION     0.012    0.012     0  03:30      0.0388      0.0388       0.343
  FID5435              JUNCTION     0.089    0.089     0  04:05       0.397       0.397       0.047
  FID5437              JUNCTION     0.002    0.002     0  04:05     0.00585     0.00585       3.067
  FID5503              JUNCTION     0.000    0.000     0  03:36    0.000853    0.000853      25.490
  FID5504              JUNCTION     0.089    0.089     0  04:10       0.273       0.273       0.093
  FID5527              JUNCTION     0.019    0.019     0  04:10      0.0566      0.0566       0.299
  FID5568              JUNCTION     0.003    1.380     0  04:36     0.00838        15.9       0.757
  FID5784              JUNCTION     0.000    1.414     0  04:35           0          16       0.105
  FID5785              JUNCTION     0.000    0.016     0  04:05           0      0.0474       0.222
  AFID6926             JUNCTION     0.090    0.090     0  04:15        0.28        0.28       0.063
  AFID7360             JUNCTION     0.000    1.517     0  04:43    0.000513        16.4       0.232
  AFID7363             JUNCTION     0.000    1.517     0  04:43           0        16.4       0.112
  AFID7376             JUNCTION     0.237    0.237     0  04:10       0.748       0.748       0.005
  AFID7377             JUNCTION     0.000    1.505     0  04:37           0        16.5       0.121
  AFID7705             JUNCTION     0.000    0.774     0  04:15           0        14.3       0.285
  AFID7706             JUNCTION     0.000    0.689     0  04:17           0          14       0.273
  AFID7792             JUNCTION     0.244    0.244     0  04:05       0.757       0.757       0.023
  AFID8223             JUNCTION     0.000    1.410     0  04:36           0          16       0.024
  J1                   JUNCTION     0.671    0.671     0  04:15          21          21       0.162
  FID4901              JUNCTION     0.000    0.494     0  04:19           0        13.8       0.256
  J9                   JUNCTION     0.000    0.670     0  04:15           0          21       0.330
  J11                  JUNCTION     0.000    0.668     0  04:15           0        20.9       0.583
  J12                  JUNCTION     0.008    0.675     0  04:20      0.0282        20.8       0.637
  J13                  JUNCTION    -0.220    0.687     0  04:35       -7.13        20.7      -0.201
  FID4902              JUNCTION     0.000    0.504     0  04:19           0        13.8       0.402
  J14                  JUNCTION     0.401    0.932     0  04:05       0.594        14.5       0.207
  J15                  JUNCTION     0.510    1.291     0  04:05       0.828        15.3       0.168
  J16                  JUNCTION     0.010    1.276     0  04:05      0.0115        15.3       0.169
  FID2449              JUNCTION     0.001    1.191     0  04:09     0.00166        15.1       1.335
  J17                  JUNCTION     0.172    1.503     0  04:10       0.515        16.5       0.114
  J19                  JUNCTION     0.016    1.381     0  04:07      0.0448        16.3       1.326
  FID5069              JUNCTION     0.000    1.391     0  04:30           0        16.2       0.189
  FID5139              JUNCTION     0.000    1.383     0  04:38           0        15.8       0.058
  J24                  JUNCTION     0.018    1.381     0  04:38       0.051        15.8       0.084
  FID4984              JUNCTION     0.000    1.418     0  04:34           0        16.1       0.874
  FID2669              JUNCTION     0.000    1.717     0  04:40           0        17.8       0.075
  FID2712              JUNCTION     0.000    1.681     0  04:35           0        17.7       0.092
  FID2718              JUNCTION     0.000    1.670     0  04:35           0        17.7       0.064
  FID2838              JUNCTION     0.000    1.582     0  04:40           0          17       0.195
  FID2825              JUNCTION     0.000    1.534     0  04:45           0        16.4       0.338
  FID2823              JUNCTION     0.000    1.533     0  04:44           0        16.5       0.521
  FID5505              JUNCTION     0.000    1.532     0  04:42           0        16.6       0.144
  FID5436              JUNCTION     0.000    1.456     0  04:35           0        16.2       0.908
  FID5438              JUNCTION     0.000    1.417     0  04:39           0        15.8       0.160
  J49                  JUNCTION     0.000    0.506     0  04:19           0        13.7       0.647
  J50                  JUNCTION     0.000    0.511     0  04:19    0.000342        13.6       1.122
  J51                  JUNCTION     0.000    0.532     0  04:34           0        13.5       0.895
  J52                  JUNCTION     0.000    0.547     0  04:34           0        13.4       0.264
  J53                  JUNCTION     0.000    0.787     0  04:15           0          14       0.231
  J54                  JUNCTION     0.000    0.783     0  04:15           0          14       0.343
  J55                  JUNCTION     0.000    0.774     0  04:15           0        14.2       0.323
  J56                  JUNCTION     0.000    0.774     0  04:15           0        14.2       0.349
  J57                  JUNCTION     0.000    0.775     0  04:15           0        14.1       0.439
  J58                  JUNCTION     0.002    0.780     0  04:15      0.0083        14.1       0.469
  FID1935              JUNCTION     0.000    1.137     0  04:05           0        14.8       0.265
  J59                  JUNCTION     0.000    1.109     0  04:05           0        14.7       0.373
  J60                  JUNCTION     0.010    1.066     0  04:05      0.0116        14.7       0.583
  J61                  JUNCTION     0.000    0.986     0  04:06           0        14.6       0.392
  J62                  JUNCTION     0.000    0.970     0  04:07           0        14.5       0.177
  J63                  JUNCTION     0.000    0.973     0  04:08           0        14.5       0.180
  J64                  JUNCTION     0.000    1.259     0  04:05           0        15.3       0.176
  J65                  JUNCTION     0.031    1.260     0  04:05       0.037        15.3       1.028
  J66                  JUNCTION     0.000    1.360     0  04:10           0        15.8       0.307
  J67                  JUNCTION     0.000    1.353     0  04:10           0        15.8       0.456
  J68                  JUNCTION     0.010    1.346     0  04:11      0.0284        15.7       0.489
  J69                  JUNCTION     0.000    1.493     0  04:09           0        16.5       0.477
  J70                  JUNCTION     0.005    1.465     0  04:08      0.0143        16.4       0.613
  J71                  JUNCTION     0.000    1.418     0  04:07           0        16.3       0.445
  J72                  JUNCTION     0.013    1.349     0  04:32      0.0385        16.1       1.444
  J73                  JUNCTION     0.000    1.390     0  04:30           0        16.2       0.429
  J74                  JUNCTION     0.000    1.386     0  04:31           0        16.1       0.630
  J75                  JUNCTION     0.005    1.383     0  04:33      0.0149          16       0.969
  J76                  JUNCTION     0.000    1.384     0  04:38           0        15.8       0.239
  J77                  JUNCTION     0.105    1.411     0  04:33       0.326        16.1       0.435
  J78                  JUNCTION     0.000    1.410     0  04:35           0          16       0.326
  J79                  JUNCTION     0.000    1.410     0  04:36           0          16       0.119
  J80                  JUNCTION     0.013    1.418     0  04:37      0.0377        15.9       0.737
  J81                  JUNCTION     0.002    1.456     0  04:38     0.00658        16.1       1.336
  J82                  JUNCTION     0.000    1.451     0  04:42           0        15.9       0.530
  J83                  JUNCTION     0.000    1.451     0  04:44           0        15.8       0.407
  J84                  JUNCTION     0.000    1.504     0  04:37           0        16.5       0.212
  J85                  JUNCTION     0.000    1.503     0  04:39           0        16.4       0.395
  J86                  JUNCTION     0.000    1.502     0  04:41           0        16.4       0.418
  J87                  JUNCTION     0.004    1.517     0  04:42      0.0102        16.4       0.173
  J88                  JUNCTION     0.000    1.518     0  04:44           0        16.4       0.260
  J89                  JUNCTION     0.000    1.532     0  04:43           0        16.6       0.394
  J90                  JUNCTION     0.000    1.582     0  04:40           0          17       0.141
  J91                  JUNCTION     0.000    1.582     0  04:41           0          17       0.196
  J92                  JUNCTION     0.000    1.582     0  04:41    4.14e-06        16.9       0.247
  J93                  JUNCTION     0.000    1.588     0  04:42           0          17       0.133
  J94                  JUNCTION     0.000    1.588     0  04:42     7.5e-06        16.9       0.146
  J95                  JUNCTION     0.000    1.589     0  04:43           0        16.9       0.056
  J96                  JUNCTION     0.000    1.634     0  04:38           0        17.6       0.206
  J97                  JUNCTION     0.000    1.633     0  04:39           0        17.5       0.175
  J98                  JUNCTION     0.000    1.633     0  04:40           0        17.5       0.154
  J99                  JUNCTION     0.000    1.633     0  04:40           0        17.5       0.130
  J100                 JUNCTION     0.000    1.633     0  04:41           0        17.4       0.110
  J101                 JUNCTION     0.000    1.633     0  04:41           0        17.4       0.127
  J102                 JUNCTION     0.000    1.634     0  04:41           0        17.4       0.100
  J103                 JUNCTION     0.000    1.669     0  04:36           0        17.6       0.075
  J104                 JUNCTION     0.000    1.679     0  04:36           0        17.7       0.098
  J105                 JUNCTION     0.000    1.678     0  04:36           0        17.7       0.122
  J106                 JUNCTION     0.000    1.677     0  04:37           0        17.6       0.136
  J107                 JUNCTION     0.000    1.676     0  04:38           0        17.6       0.139
  J108                 JUNCTION     0.000    1.675     0  04:38    2.63e-05        17.6       0.125
  J109                 JUNCTION     0.000    1.674     0  04:39           0        17.6       0.106
  J110                 JUNCTION     0.000    1.674     0  04:39           0        17.5       0.104
  J111                 JUNCTION     0.000    1.673     0  04:40    0.000229        17.5       0.076
  J112                 JUNCTION     0.000    1.717     0  04:40           0        17.8       0.106
  J113                 JUNCTION     0.000    1.716     0  04:41           0        17.8       0.104
  J114                 JUNCTION     0.000    1.716     0  04:41           0        17.7       0.087
  J115                 JUNCTION     0.000    1.715     0  04:41           0        17.7       0.065
  J116                 JUNCTION     0.000    1.715     0  04:42    7.28e-06        17.7       0.087
  J117                 JUNCTION     0.000    1.715     0  04:42           0        17.7       0.107
  J118                 JUNCTION     0.000    1.714     0  04:42           0        17.7       0.092
  J119                 JUNCTION     0.000    1.714     0  04:43           0        17.7       0.091
  J120                 JUNCTION     0.000    1.714     0  04:43           0        17.6       0.111
  FID2451              JUNCTION     0.000    1.181     0  04:10           0        15.1       0.246
  J121                 JUNCTION     0.007    1.452     0  04:45      0.0199        15.8       0.121
  J122                 JUNCTION     0.000    1.452     0  04:45    0.000904        15.8       0.105
  FID3706              JUNCTION     0.000    1.587     0  04:42           0          17       0.190
  FID2831              JUNCTION     0.000    1.635     0  04:37           0        17.6       0.125
  FID2689              OUTFALL      0.000    1.714     0  04:43           0        17.6       0.000
  
  
  **********************
  Node Surcharge Summary
  **********************
  
  Surcharging occurs when water rises above the top of the highest conduit.
  ---------------------------------------------------------------------
                                               Max. Height   Min. Depth
                                   Hours       Above Crown    Below Rim
  Node                 Type      Surcharged         Meters       Meters
  ---------------------------------------------------------------------
  J19                  JUNCTION        0.77          0.128        0.000
  J70                  JUNCTION        0.73          0.135        0.000
  J71                  JUNCTION        0.75          0.132        0.000
  
  
  *********************
  Node Flooding Summary
  *********************
  
  Flooding refers to all water that overflows a node, whether it ponds or not.
  --------------------------------------------------------------------------
                                                             Total   Maximum
                                 Maximum   Time of Max       Flood    Ponded
                        Hours       Rate    Occurrence      Volume     Depth
  Node                 Flooded       CMS   days hr:min    10^6 ltr    Meters
  --------------------------------------------------------------------------
  J19                     0.77     0.143      0  04:10       0.078     0.128
  J70                     0.73     0.066      0  04:11       0.048     0.135
  J71                     0.75     0.058      0  04:11       0.037     0.132
  
  
  ***********************
  Outfall Loading Summary
  ***********************
  
  -----------------------------------------------------------------------------------------------------
                         Flow       Avg       Max       Total         Total         Total         Total
                         Freq      Flow      Flow      Volume           TSS            TP           TDP
  Outfall Node           Pcnt       CMS       CMS    10^6 ltr            kg            kg            kg
  -----------------------------------------------------------------------------------------------------
  FID2689               75.05     0.970     1.714      17.629      7605.144         3.721         3.507
  -----------------------------------------------------------------------------------------------------
  System                75.05     0.970     1.714      17.629      7605.144         3.721         3.507
  
  
  ********************
  Link Flow Summary
  ********************
  
  -----------------------------------------------------------------------------
                                 Maximum  Time of Max   Maximum    Max/    Max/
                                  |Flow|   Occurrence   |Veloc|    Full    Full
  Link                 Type          CMS  days hr:min     m/sec    Flow   Depth
  -----------------------------------------------------------------------------
  FID1123              CONDUIT     0.029     0  04:10      1.11    0.31    0.61
  FID1139              CONDUIT     0.185     0  04:05      2.16    0.85    0.71
  FID1148              CONDUIT     0.223     0  04:10      1.27    0.35    0.31
  FID1149              CONDUIT     0.223     0  04:10      2.52    0.05    0.32
  FID3364              CONDUIT     0.236     0  04:10      1.19    0.12    0.40
  FID3671              CONDUIT     0.014     0  04:15      1.66    0.06    0.17
  FID3672              CONDUIT     0.046     0  04:15      2.35    0.21    0.31
  FID3762              CONDUIT     0.091     0  04:15      1.85    0.17    0.54
  FID3765              CONDUIT     0.199     0  04:15      2.90    0.36    0.63
  FID4112              CONDUIT     0.227     0  04:05      2.58    0.25    0.34
  FID4186              CONDUIT     0.015     0  04:05      1.42    0.05    0.15
  FID4187              CONDUIT     0.015     0  04:05      2.23    0.02    0.11
  FID4201              CONDUIT     0.166     0  04:05      1.69    1.08    0.81
  FID4202              CONDUIT     0.165     0  04:05      2.10    0.77    0.66
  FID4203              CONDUIT     0.000     0  00:00      0.00    0.00    0.27
  FID4299              CONDUIT     0.007     0  04:05      1.34    0.02    0.10
  FID4372              CONDUIT     0.012     0  03:30      0.12    0.00    0.34
  FID4498              CONDUIT     0.051     0  04:20      0.55    0.18    0.68
  FID4806              CONDUIT     0.089     0  04:05      2.04    0.03    0.12
  FID4807              CONDUIT     0.002     0  04:05      1.02    0.01    0.06
  FID4882              CONDUIT     0.000     0  03:47      0.04    0.00    0.52
  FID4884              CONDUIT     0.089     0  04:10      2.82    0.02    0.15
  FID4914              CONDUIT     0.019     0  04:10      0.28    0.04    0.57
  FID4915              CONDUIT     0.004     0  04:10      0.28    0.07    0.18
  FID4916              CONDUIT     0.004     0  04:10      0.39    0.07    0.15
  FID4917              CONDUIT     0.004     0  04:10      0.90    0.01    0.53
  FID5307              CONDUIT     0.016     0  04:05      0.67    0.18    0.26
  FID5308              CONDUIT     0.006     0  04:05      1.63    0.02    0.10
  FID5312              CONDUIT     0.016     0  04:05      0.87    0.06    0.17
  FID5865              CONDUIT     0.187     0  04:10      3.06    0.08    0.30
  C9                   CHANNEL     0.670     0  04:15      0.62    0.08    0.51
  C12                  CHANNEL     0.670     0  04:35      0.42    0.35    0.64
  C13                  CHANNEL     0.687     0  04:35      0.57    0.36    0.67
  C14                  CHANNEL     0.473     0  04:35      0.57    0.25    0.68
  C52                  CONDUIT     0.243     0  04:05      1.37    0.24    0.62
  C130                 CONDUIT     0.047     0  04:05      0.83    0.56    0.38
  C131                 CONDUIT     0.047     0  04:05      2.10    0.06    0.42
  C139                 CONDUIT     0.002     0  03:40      0.10    0.01    0.43
  C191                 CHANNEL     0.506     0  04:19      0.44    0.26    0.72
  C193                 CHANNEL     0.532     0  04:34      0.34    0.28    0.82
  C194                 CHANNEL     0.547     0  04:34      0.28    0.28    0.86
  C195                 CHANNEL     0.551     0  04:34      0.32    0.13    0.69
  C196                 CONDUIT     0.496     0  04:19      0.41    0.43    0.75
  C197                 CONDUIT     0.690     0  04:17      0.22    0.38    0.97
  C198                 CHANNEL     0.774     0  04:15      0.29    0.18    0.59
  C199                 CHANNEL     0.774     0  04:15      0.29    3.99    0.69
  C200                 CHANNEL     0.775     0  04:15      0.30    3.61    0.66
  C201                 CHANNEL     0.778     0  04:16      0.31    0.27    0.55
  C202                 CHANNEL     0.783     0  04:15      0.30    0.27    0.56
  C203                 CHANNEL     0.787     0  04:15      0.30    0.28    0.57
  C204                 CHANNEL     0.792     0  04:15      0.43    0.28    0.58
  C205                 CONDUIT     0.912     0  04:05      0.32    0.74    0.71
  C206                 CHANNEL     1.109     0  04:05      0.39    0.39    0.59
  C207                 CHANNEL     1.059     0  04:05      0.38    0.37    0.59
  C208                 CHANNEL     0.986     0  04:06      0.35    0.34    0.59
  C209                 CHANNEL     0.970     0  04:07      0.35    0.34    0.59
  C210                 CHANNEL     0.973     0  04:08      0.42    0.35    0.69
  C211                 CHANNEL     0.978     0  04:09      0.41    0.42    0.63
  C212                 CONDUIT     1.268     0  04:05      0.43    0.87    0.76
  C213                 CHANNEL     1.259     0  04:05      0.54    0.54    0.64
  C214                 CHANNEL     1.242     0  04:06      0.55    0.53    0.63
  C215                 CONDUIT     1.190     0  04:09      0.37    0.81    0.81
  C216                 CONDUIT     1.165     0  04:11      0.46    1.02    0.67
  C217                 CONDUIT     1.179     0  04:10      0.39    0.55    0.52
  C218                 CHANNEL     1.360     0  04:10      0.49    0.58    0.73
  C219                 CHANNEL     1.353     0  04:10      0.49    0.58    0.74
  C220                 CHANNEL     1.340     0  04:11      0.49    0.57    0.75
  C221                 CHANNEL     1.323     0  04:11      0.50    0.57    0.77
  C222                 CONDUIT     1.382     0  04:10      0.49    1.09    0.93
  C223                 CHANNEL     1.493     0  04:09      0.59    0.22    0.78
  C224                 CHANNEL     1.462     0  04:08      0.48    1.12    1.00
  C225                 CHANNEL     1.418     0  04:07      0.48    1.09    1.00
  C226                 CHANNEL     1.372     0  04:07      0.49    1.05    1.00
  C227                 CONDUIT     1.345     0  04:33      0.38    1.29    1.00
  C228                 CHANNEL     1.351     0  04:34      0.60    0.65    0.79
  C229                 CONDUIT     1.388     0  04:30      0.31    0.29    0.58
  C230                 CHANNEL     1.390     0  04:30      0.59    0.67    0.82
  C231                 CHANNEL     1.386     0  04:31      0.59    0.67    0.82
  C232                 CHANNEL     1.382     0  04:33      0.59    0.67    0.82
  C233                 CHANNEL     1.379     0  04:36      0.60    0.67    0.80
  C234                 CONDUIT     1.379     0  04:38      0.47    0.67    0.62
  C235                 CHANNEL     1.381     0  04:38      0.61    0.67    0.79
  C236                 CHANNEL     1.384     0  04:38      0.58    0.78    0.88
  C237                 CHANNEL     1.384     0  04:38      0.58    0.78    0.88
  C238                 CHANNEL     1.410     0  04:35      0.59    0.80    0.88
  C239                 CHANNEL     1.410     0  04:36      0.60    0.80    0.88
  C240                 CHANNEL     1.410     0  04:36      0.60    0.78    0.88
  C241                 CHANNEL     1.410     0  04:36      0.71    0.80    0.88
  C242                 CONDUIT     1.414     0  04:35      0.44    0.58    0.70
  C243                 CHANNEL     1.417     0  04:37      0.64    0.80    0.84
  C244                 CHANNEL     1.417     0  04:40      0.79    0.27    0.49
  C245                 CONDUIT     1.417     0  04:40      0.55    0.46    0.63
  C246                 CHANNEL     1.453     0  04:39      0.51    0.55    0.72
  C247                 CHANNEL     1.451     0  04:42      0.52    0.55    0.71
  C248                 CHANNEL     1.451     0  04:44      0.55    0.55    0.68
  C249                 CHANNEL     1.452     0  04:45      3.13    0.69    0.70
  C250                 CONDUIT     1.452     0  04:45      0.63    0.63    0.57
  C251                 CONDUIT     1.453     0  04:45      0.63    0.63    0.57
  C252                 CHANNEL     1.504     0  04:37      1.36    0.72    0.66
  C253                 CHANNEL     1.503     0  04:39      0.56    0.40    0.66
  C254                 CHANNEL     1.502     0  04:41      0.49    0.40    0.70
  C255                 CHANNEL     1.501     0  04:43      0.44    0.40    0.76
  C256                 CHANNEL     1.517     0  04:42      0.42    0.41    0.81
  C257                 CHANNEL     1.517     0  04:43      2.38    0.41    0.84
  C258                 CONDUIT     1.517     0  04:43      0.53    0.66    0.71
  C259                 CHANNEL     1.518     0  04:44      0.43    0.41    0.89
  C260                 CHANNEL     1.518     0  04:45      0.41    0.41    0.93
  C261                 CHANNEL     1.532     0  04:43      2.79    0.41    0.95
  C262                 CHANNEL     1.533     0  04:44      1.04    0.41    0.98
  C263                 CHANNEL     1.534     0  04:45      0.45    0.42    0.69
  C264                 CONDUIT     1.535     0  04:45      0.49    0.94    0.74
  C265                 CHANNEL     1.582     0  04:40      0.52    0.43    0.62
  C266                 CHANNEL     1.582     0  04:41      0.54    0.37    0.67
  C267                 CHANNEL     1.582     0  04:41      0.54    0.37    0.67
  C268                 CHANNEL     1.582     0  04:42      0.54    0.37    0.67
  C269                 CHANNEL     1.588     0  04:42      0.54    0.37    0.67
  C270                 CHANNEL     1.588     0  04:42      0.54    0.37    0.67
  C271                 CHANNEL     1.589     0  04:43      0.54    0.37    0.67
  C272                 CHANNEL     1.589     0  04:43      0.54    0.37    0.67
  C273                 CHANNEL     1.634     0  04:38      0.56    0.38    0.66
  C274                 CHANNEL     1.633     0  04:39      0.57    0.38    0.66
  C275                 CHANNEL     1.633     0  04:40      0.58    0.38    0.65
  C276                 CHANNEL     1.633     0  04:40      0.60    0.38    0.64
  C277                 CHANNEL     1.633     0  04:41      0.63    0.38    0.62
  C278                 CHANNEL     1.633     0  04:41      0.67    0.38    0.60
  C279                 CHANNEL     1.634     0  04:41      0.77    0.38    0.56
  C280                 CHANNEL     1.635     0  04:42      0.63    0.66    0.76
  C281                 CHANNEL     1.669     0  04:36      0.64    0.67    0.76
  C282                 CHANNEL     1.668     0  04:37      0.65    0.67    0.75
  C283                 CHANNEL     1.679     0  04:36      0.66    0.68    0.75
  C284                 CHANNEL     1.678     0  04:36      0.68    0.67    0.73
  C285                 CHANNEL     1.677     0  04:37      0.70    0.67    0.71
  C286                 CHANNEL     1.676     0  04:38      0.79    0.48    0.70
  C287                 CHANNEL     1.675     0  04:38      0.79    0.48    0.70
  C288                 CHANNEL     1.674     0  04:39      0.79    0.48    0.70
  C289                 CHANNEL     1.674     0  04:39      0.78    0.48    0.70
  C290                 CHANNEL     1.673     0  04:40      0.78    0.48    0.71
  C291                 CHANNEL     1.673     0  04:40      0.78    0.48    0.71
  C292                 CHANNEL     1.717     0  04:40      0.79    0.49    0.71
  C293                 CHANNEL     1.716     0  04:41      0.79    0.49    0.71
  C294                 CHANNEL     1.716     0  04:41      0.79    0.49    0.71
  C295                 CHANNEL     1.715     0  04:41      0.79    0.49    0.71
  C296                 CHANNEL     1.715     0  04:42      0.79    0.49    0.71
  C297                 CHANNEL     1.715     0  04:42      0.80    0.49    0.71
  C298                 CHANNEL     1.714     0  04:42      0.80    0.49    0.70
  C299                 CHANNEL     1.714     0  04:43      0.80    0.49    0.70
  C300                 CHANNEL     1.714     0  04:43      0.81    0.49    0.70
  C301                 CHANNEL     1.714     0  04:43      1.29    0.36    0.44
  C302                 CHANNEL     0.668     0  04:15      0.53    0.12    0.47
  C303                 CHANNEL     0.511     0  04:19      0.39    0.27    0.76
  C353                 CONDUIT     0.090     0  04:15      2.73    0.02    0.10
  
  
  ***************************
  Flow Classification Summary
  ***************************
  
  -------------------------------------------------------------------------------------
                      Adjusted    ---------- Fraction of Time in Flow Class ---------- 
                       /Actual         Up    Down  Sub   Sup   Up    Down  Norm  Inlet 
  Conduit               Length    Dry  Dry   Dry   Crit  Crit  Crit  Crit  Ltd   Ctrl  
  -------------------------------------------------------------------------------------
  FID1123                 1.00   0.13  0.00  0.00  0.37  0.01  0.00  0.48  0.28  0.00
  FID1139                 1.00   0.14  0.00  0.00  0.24  0.03  0.00  0.59  0.19  0.00
  FID1148                 1.00   0.12  0.00  0.00  0.34  0.00  0.00  0.54  0.00  0.00
  FID1149                 1.00   0.12  0.00  0.00  0.67  0.08  0.00  0.12  0.60  0.00
  FID3364                 1.00   0.12  0.00  0.00  0.85  0.00  0.00  0.03  0.68  0.00
  FID3671                 1.00   0.15  0.00  0.00  0.00  0.00  0.00  0.85  0.00  0.00
  FID3672                 1.00   0.15  0.00  0.00  0.00  0.00  0.00  0.85  0.00  0.00
  FID3762                 1.00   0.01  0.13  0.00  0.75  0.10  0.00  0.00  0.68  0.00
  FID3765                 1.00   0.01  0.13  0.00  0.67  0.19  0.00  0.00  0.68  0.00
  FID4112                 1.00   0.14  0.00  0.00  0.00  0.00  0.00  0.86  0.00  0.00
  FID4186                 1.00   0.17  0.00  0.00  0.00  0.43  0.00  0.41  0.00  0.00
  FID4187                 1.00   0.19  0.00  0.00  0.00  0.00  0.00  0.81  0.00  0.00
  FID4201                 1.00   0.14  0.00  0.00  0.51  0.01  0.00  0.34  0.30  0.00
  FID4202                 1.00   0.14  0.00  0.00  0.00  0.00  0.00  0.86  0.00  0.00
  FID4203                 1.00   0.15  0.85  0.00  0.00  0.00  0.00  0.00  0.00  0.00
  FID4299                 1.00   0.16  0.00  0.00  0.00  0.00  0.00  0.84  0.00  0.00
  FID4372                 1.00   0.08  0.08  0.00  0.84  0.00  0.00  0.00  0.67  0.00
  FID4498                 1.00   0.13  0.00  0.00  0.83  0.00  0.00  0.05  0.51  0.00
  FID4806                 1.00   0.15  0.00  0.00  0.00  0.00  0.00  0.85  0.00  0.00
  FID4807                 1.00   0.21  0.00  0.00  0.00  0.00  0.00  0.79  0.00  0.00
  FID4882                 1.00   0.22  0.51  0.00  0.27  0.00  0.00  0.00  0.60  0.00
  FID4884                 1.00   0.12  0.00  0.00  0.26  0.04  0.00  0.57  0.21  0.00
  FID4914                 1.00   0.13  0.00  0.00  0.87  0.00  0.00  0.00  0.70  0.00
  FID4915                 1.00   0.16  0.00  0.00  0.79  0.00  0.00  0.04  0.51  0.00
  FID4916                 1.00   0.20  0.00  0.00  0.59  0.00  0.00  0.21  0.12  0.00
  FID4917                 1.00   0.21  0.00  0.00  0.55  0.02  0.00  0.22  0.45  0.00
  FID5307                 1.00   0.16  0.00  0.00  0.63  0.00  0.00  0.21  0.05  0.00
  FID5308                 1.00   0.16  0.00  0.00  0.00  0.00  0.00  0.84  0.00  0.00
  FID5312                 1.00   0.18  0.00  0.00  0.00  0.00  0.00  0.82  0.00  0.00
  FID5865                 1.00   0.13  0.00  0.00  0.34  0.08  0.00  0.46  0.30  0.00
  C9                      1.00   0.00  0.00  0.00  1.00  0.00  0.00  0.00  0.00  0.00
  C12                     1.00   0.00  0.00  0.00  1.00  0.00  0.00  0.00  0.00  0.00
  C13                     1.00   0.00  0.00  0.00  1.00  0.00  0.00  0.00  0.00  0.00
  C14                     1.00   0.00  0.00  0.00  1.00  0.00  0.00  0.00  0.00  0.00
  C52                     1.00   0.04  0.11  0.00  0.85  0.00  0.00  0.00  0.68  0.00
  C130                    1.00   0.14  0.00  0.00  0.53  0.00  0.00  0.32  0.00  0.00
  C131                    1.00   0.15  0.00  0.00  0.46  0.03  0.00  0.35  0.37  0.00
  C139                    1.00   0.12  0.57  0.00  0.30  0.00  0.01  0.00  0.48  0.00
  C191                    1.00   0.00  0.00  0.00  1.00  0.00  0.00  0.00  0.00  0.00
  C193                    1.00   0.00  0.00  0.00  1.00  0.00  0.00  0.00  0.00  0.00
  C194                    1.00   0.01  0.00  0.00  0.99  0.00  0.00  0.00  0.00  0.00
  C195                    1.00   0.01  0.00  0.00  0.99  0.00  0.00  0.00  0.00  0.00
  C196                    1.00   0.00  0.00  0.00  1.00  0.00  0.00  0.00  0.00  0.00
  C197                    1.00   0.01  0.00  0.00  0.99  0.00  0.00  0.00  0.00  0.00
  C198                    1.00   0.01  0.00  0.00  0.99  0.00  0.00  0.00  0.00  0.00
  C199                    1.00   0.01  0.00  0.00  0.99  0.00  0.00  0.00  0.00  0.00
  C200                    1.00   0.01  0.00  0.00  0.99  0.00  0.00  0.00  0.00  0.00
  C201                    1.00   0.01  0.00  0.00  0.99  0.00  0.00  0.00  0.00  0.00
  C202                    1.00   0.01  0.00  0.00  0.99  0.00  0.00  0.00  0.00  0.00
  C203                    1.00   0.01  0.00  0.00  0.99  0.00  0.00  0.00  0.00  0.00
  C204                    1.00   0.02  0.00  0.00  0.98  0.00  0.00  0.00  0.00  0.00
  C205                    1.00   0.02  0.00  0.00  0.98  0.00  0.00  0.00  0.00  0.00
  C206                    1.00   0.02  0.00  0.00  0.98  0.00  0.00  0.00  0.00  0.00
  C207                    1.00   0.02  0.00  0.00  0.98  0.00  0.00  0.00  0.00  0.00
  C208                    1.00   0.02  0.00  0.00  0.98  0.00  0.00  0.00  0.00  0.00
  C209                    1.00   0.02  0.00  0.00  0.98  0.00  0.00  0.00  0.00  0.00
  C210                    1.00   0.02  0.00  0.00  0.98  0.00  0.00  0.00  0.00  0.00
  C211                    1.00   0.02  0.00  0.00  0.98  0.00  0.00  0.00  0.00  0.00
  C212                    1.00   0.03  0.00  0.00  0.97  0.00  0.00  0.00  0.00  0.00
  C213                    1.00   0.03  0.00  0.00  0.97  0.00  0.00  0.00  0.00  0.00
  C214                    1.00   0.03  0.00  0.00  0.97  0.00  0.00  0.00  0.00  0.00
  C215                    1.00   0.03  0.00  0.00  0.97  0.00  0.00  0.00  0.61  0.00
  C216                    1.00   0.03  0.00  0.00  0.97  0.00  0.00  0.00  0.00  0.00
  C217                    1.00   0.03  0.00  0.00  0.97  0.00  0.00  0.00  0.00  0.00
  C218                    1.00   0.03  0.00  0.00  0.97  0.00  0.00  0.00  0.00  0.00
  C219                    1.00   0.04  0.00  0.00  0.96  0.00  0.00  0.00  0.00  0.00
  C220                    1.00   0.04  0.00  0.00  0.96  0.00  0.00  0.00  0.00  0.00
  C221                    1.00   0.04  0.00  0.00  0.96  0.00  0.00  0.00  0.00  0.00
  C222                    1.00   0.04  0.00  0.00  0.96  0.00  0.00  0.00  0.00  0.00
  C223                    1.00   0.04  0.00  0.00  0.96  0.00  0.00  0.00  0.01  0.00
  C224                    1.00   0.05  0.00  0.00  0.95  0.00  0.00  0.00  0.00  0.00
  C225                    1.00   0.05  0.00  0.00  0.95  0.00  0.00  0.00  0.00  0.00
  C226                    1.00   0.05  0.00  0.00  0.95  0.00  0.00  0.00  0.00  0.00
  C227                    1.00   0.05  0.00  0.00  0.95  0.00  0.00  0.00  0.00  0.00
  C228                    1.00   0.05  0.00  0.00  0.95  0.00  0.00  0.00  0.00  0.00
  C229                    1.00   0.06  0.00  0.00  0.94  0.00  0.00  0.00  0.00  0.00
  C230                    1.00   0.06  0.00  0.00  0.94  0.00  0.00  0.00  0.00  0.00
  C231                    1.00   0.06  0.00  0.00  0.94  0.00  0.00  0.00  0.01  0.00
  C232                    1.00   0.06  0.00  0.00  0.94  0.00  0.00  0.00  0.00  0.00
  C233                    1.00   0.07  0.00  0.00  0.93  0.00  0.00  0.00  0.00  0.00
  C234                    1.00   0.07  0.00  0.00  0.93  0.00  0.00  0.00  0.00  0.00
  C235                    1.00   0.07  0.00  0.00  0.93  0.00  0.00  0.00  0.00  0.00
  C236                    1.00   0.07  0.00  0.00  0.93  0.00  0.00  0.00  0.00  0.00
  C237                    1.00   0.07  0.00  0.00  0.93  0.00  0.00  0.00  0.00  0.00
  C238                    1.00   0.07  0.00  0.00  0.93  0.00  0.00  0.00  0.00  0.00
  C239                    1.00   0.08  0.00  0.00  0.92  0.00  0.00  0.00  0.00  0.00
  C240                    1.00   0.08  0.00  0.00  0.92  0.00  0.00  0.00  0.00  0.00
  C241                    1.00   0.08  0.00  0.00  0.92  0.00  0.00  0.00  0.00  0.00
  C242                    1.00   0.08  0.00  0.00  0.92  0.00  0.00  0.00  0.00  0.00
  C243                    1.00   0.08  0.00  0.00  0.92  0.00  0.00  0.00  0.00  0.00
  C244                    1.00   0.08  0.00  0.00  0.91  0.00  0.00  0.00  0.00  0.00
  C245                    1.00   0.09  0.00  0.00  0.91  0.00  0.00  0.00  0.00  0.00
  C246                    1.00   0.09  0.00  0.00  0.91  0.00  0.00  0.00  0.22  0.00
  C247                    1.00   0.10  0.00  0.00  0.90  0.00  0.00  0.00  0.00  0.00
  C248                    1.00   0.11  0.00  0.00  0.89  0.00  0.00  0.00  0.00  0.00
  C249                    1.00   0.11  0.01  0.00  0.87  0.00  0.00  0.00  0.01  0.00
  C250                    1.00   0.11  0.00  0.00  0.89  0.00  0.00  0.00  0.00  0.00
  C251                    1.00   0.12  0.00  0.00  0.88  0.00  0.00  0.00  0.01  0.00
  C252                    1.00   0.12  0.00  0.00  0.88  0.00  0.00  0.00  0.00  0.00
  C253                    1.00   0.12  0.00  0.00  0.87  0.00  0.00  0.00  0.00  0.00
  C254                    1.00   0.14  0.00  0.00  0.86  0.00  0.00  0.00  0.00  0.00
  C255                    1.00   0.13  0.03  0.00  0.84  0.00  0.00  0.00  0.01  0.00
  C256                    1.00   0.11  0.01  0.00  0.87  0.00  0.00  0.00  0.01  0.00
  C257                    1.00   0.11  0.00  0.00  0.88  0.01  0.00  0.00  0.00  0.00
  C258                    1.00   0.11  0.01  0.00  0.88  0.00  0.00  0.00  0.01  0.00
  C259                    1.00   0.11  0.00  0.00  0.88  0.00  0.00  0.00  0.04  0.00
  C260                    1.00   0.12  0.00  0.00  0.87  0.00  0.00  0.00  0.01  0.00
  C261                    1.00   0.12  0.00  0.00  0.88  0.00  0.00  0.00  0.01  0.00
  C262                    1.00   0.12  0.00  0.00  0.87  0.00  0.00  0.00  0.00  0.00
  C263                    1.00   0.13  0.00  0.00  0.87  0.00  0.00  0.00  0.02  0.00
  C264                    1.00   0.13  0.00  0.00  0.87  0.00  0.00  0.00  0.01  0.00
  C265                    1.00   0.13  0.04  0.00  0.84  0.00  0.00  0.00  0.00  0.00
  C266                    1.00   0.17  0.00  0.00  0.83  0.00  0.00  0.00  0.00  0.00
  C267                    1.00   0.12  0.07  0.00  0.81  0.00  0.00  0.00  0.00  0.00
  C268                    1.00   0.12  0.00  0.00  0.88  0.00  0.00  0.00  0.06  0.00
  C269                    1.00   0.13  0.00  0.00  0.87  0.00  0.00  0.00  0.00  0.00
  C270                    1.00   0.12  0.02  0.00  0.86  0.00  0.00  0.00  0.06  0.00
  C271                    1.00   0.12  0.00  0.00  0.88  0.00  0.00  0.00  0.01  0.00
  C272                    1.00   0.12  0.00  0.00  0.87  0.00  0.00  0.00  0.00  0.00
  C273                    1.00   0.12  0.00  0.00  0.88  0.00  0.00  0.00  0.03  0.00
  C274                    1.00   0.13  0.00  0.00  0.87  0.00  0.00  0.00  0.02  0.00
  C275                    1.00   0.14  0.00  0.00  0.86  0.00  0.00  0.00  0.01  0.00
  C276                    1.00   0.16  0.00  0.00  0.84  0.00  0.00  0.00  0.01  0.00
  C277                    1.00   0.18  0.00  0.00  0.82  0.00  0.00  0.00  0.00  0.00
  C278                    1.00   0.19  0.00  0.00  0.81  0.00  0.00  0.00  0.00  0.00
  C279                    1.00   0.15  0.05  0.00  0.80  0.00  0.00  0.00  0.01  0.00
  C280                    1.00   0.14  0.01  0.00  0.85  0.00  0.00  0.00  0.04  0.00
  C281                    1.00   0.14  0.00  0.00  0.86  0.00  0.00  0.00  0.04  0.00
  C282                    1.00   0.14  0.00  0.00  0.86  0.00  0.00  0.00  0.05  0.00
  C283                    1.00   0.15  0.00  0.00  0.85  0.00  0.00  0.00  0.03  0.00
  C284                    1.00   0.16  0.00  0.00  0.84  0.00  0.00  0.00  0.02  0.00
  C285                    1.00   0.16  0.00  0.00  0.84  0.00  0.00  0.00  0.00  0.00
  C286                    1.00   0.17  0.00  0.00  0.83  0.00  0.00  0.00  0.00  0.00
  C287                    1.00   0.14  0.05  0.00  0.81  0.00  0.00  0.00  0.00  0.00
  C288                    1.00   0.14  0.00  0.00  0.86  0.00  0.00  0.00  0.00  0.00
  C289                    1.00   0.21  0.00  0.00  0.79  0.00  0.00  0.00  0.00  0.00
  C290                    1.00   0.14  0.09  0.00  0.77  0.00  0.00  0.00  0.01  0.00
  C291                    1.00   0.14  0.00  0.00  0.86  0.00  0.00  0.00  0.06  0.00
  C292                    1.00   0.15  0.00  0.00  0.85  0.00  0.00  0.00  0.02  0.00
  C293                    1.00   0.15  0.00  0.00  0.85  0.00  0.00  0.00  0.02  0.00
  C294                    1.00   0.16  0.00  0.00  0.84  0.00  0.00  0.00  0.01  0.00
  C295                    1.00   0.17  0.00  0.00  0.83  0.00  0.00  0.00  0.01  0.00
  C296                    1.00   0.14  0.04  0.00  0.81  0.00  0.00  0.00  0.01  0.00
  C297                    1.00   0.14  0.00  0.00  0.86  0.00  0.00  0.00  0.01  0.00
  C298                    1.00   0.21  0.00  0.00  0.79  0.00  0.00  0.00  0.00  0.00
  C299                    1.00   0.22  0.00  0.00  0.78  0.00  0.00  0.00  0.00  0.00
  C300                    1.00   0.23  0.00  0.00  0.77  0.00  0.00  0.00  0.00  0.00
  C301                    1.00   0.24  0.00  0.00  0.76  0.00  0.00  0.00  0.00  0.00
  C302                    1.00   0.00  0.00  0.00  1.00  0.00  0.00  0.00  0.00  0.00
  C303                    1.00   0.00  0.00  0.00  1.00  0.00  0.00  0.00  0.00  0.00
  C353                    1.00   0.15  0.00  0.00  0.00  0.00  0.00  0.85  0.00  0.00
  
  
  *************************
  Conduit Surcharge Summary
  *************************
  
  ----------------------------------------------------------------------------
                                                           Hours        Hours 
                         --------- Hours Full --------   Above Full   Capacity
  Conduit                Both Ends  Upstream  Dnstream   Normal Flow   Limited
  ----------------------------------------------------------------------------
  FID1123                     0.01      0.01      0.12      0.01         0.01
  FID4201                     0.01      0.01      0.01      0.03         0.01
  FID4498                     0.01      0.01      1.99      0.01         0.01
  FID4882                     0.01      0.01      2.56      0.01         0.01
  FID4914                     0.01      0.01      2.65      0.01         0.01
  FID4917                     0.01      0.01      1.26      0.01         0.01
  C197                        0.01      0.01      0.28      0.01         0.01
  C199                        0.01      0.01      0.01      8.52         0.01
  C200                        0.01      0.01      0.01      8.46         0.01
  C216                        0.01      0.01      0.01      0.13         0.01
  C222                        0.01      0.01      0.01      0.47         0.01
  C224                        0.69      0.73      0.73      0.58         0.41
  C225                        0.72      0.73      0.75      0.57         0.42
  C226                        0.74      0.75      0.77      0.57         0.45
  C227                        0.64      0.85      0.64      1.17         0.64
  C262                        0.01      0.01      1.05      0.01         0.01
  
  
  ***************************
  Link Pollutant Load Summary
  ***************************
  
  --------------------------------------------------------------
                                 TSS            TP           TDP
  Link                            kg            kg            kg
  --------------------------------------------------------------
  FID1123                     62.624         0.003         0.008
  FID1139                    342.460         0.038         0.049
  FID1148                    526.004         0.082         0.092
  FID1149                    522.303         0.082         0.092
  FID3364                    601.908         0.100         0.114
  FID3671                      7.857         0.007         0.010
  FID3672                    107.484         0.031         0.028
  FID3762                    171.603         0.089         0.080
  FID3765                    372.199         0.131         0.136
  FID4112                    173.409         0.047         0.044
  FID4186                     11.485         0.012         0.012
  FID4187                      9.319         0.012         0.012
  FID4201                     88.930         0.036         0.025
  FID4202                     79.088         0.036         0.025
  FID4203                      0.000         0.000         0.000
  FID4299                      2.545         0.006         0.004
  FID4372                    233.136         0.033         0.002
  FID4498                     77.519         0.072         0.040
  FID4806                    656.266         0.567         0.772
  FID4807                      0.000         0.002         0.001
  FID4882                      0.006         0.000         0.000
  FID4884                    259.970         0.015         0.028
  FID4914                     42.298         0.021         0.021
  FID4915                      2.536         0.003         0.001
  FID4916                      0.824         0.003         0.001
  FID4917                      0.111         0.003         0.001
  FID5307                     58.451         0.010         0.009
  FID5308                      2.969         0.007         0.004
  FID5312                     55.996         0.010         0.008
  FID5865                    313.084         1.115         0.735
  C9                         161.490         1.061         1.301
  C12                        159.869         1.044         1.279
  C13                        227.294         1.053         1.287
  C14                        149.008         0.694         0.852
  C52                        612.418         0.156         0.172
  C130                       108.023         0.012         0.006
  C131                       105.356         0.011         0.006
  C139                         0.000         0.000         0.000
  C191                       264.023         0.724         0.880
  C193                       264.334         0.704         0.853
  C194                       260.581         0.698         0.851
  C195                       259.977         0.696         0.848
  C196                       256.452         0.721         0.876
  C197                       632.138         0.824         0.980
  C198                       803.486         0.911         1.057
  C199                       804.713         0.908         1.052
  C200                       803.717         0.905         1.048
  C201                       808.162         0.901         1.042
  C202                       815.632         0.903         1.043
  C203                       816.406         0.900         1.039
  C204                       810.933         0.897         1.037
  C205                      1249.510         0.970         1.112
  C206                      1421.740         1.014         1.153
  C207                      1429.424         1.012         1.147
  C208                      1441.746         1.016         1.150
  C209                      1428.394         1.010         1.145
  C210                      1429.577         1.008         1.142
  C211                      1427.497         1.006         1.140
  C212                      1885.639         1.142         1.272
  C213                      1890.542         1.144         1.272
  C214                      1892.887         1.143         1.270
  C215                      1987.487         1.171         1.278
  C216                      1895.358         1.145         1.258
  C217                      1977.575         1.178         1.280
  C218                      2587.012         1.331         1.448
  C219                      2597.399         1.330         1.444
  C220                      2604.739         1.327         1.439
  C221                      2635.299         1.342         1.454
  C222                      2895.173         1.401         1.524
  C223                      3340.237         1.483         1.597
  C224                      3379.071         1.484         1.594
  C225                      3387.457         1.483         1.592
  C226                      3385.819         1.479         1.586
  C227                      3508.686         1.493         1.582
  C228                      3376.027         1.483         1.574
  C229                      3719.156         1.593         1.678
  C230                      3716.896         1.597         1.679
  C231                      3776.043         1.602         1.679
  C232                      3742.846         1.591         1.666
  C233                      3849.967         1.606         1.676
  C234                      3728.645         1.585         1.653
  C235                      3755.417         1.595         1.660
  C236                      3985.227         1.628         1.661
  C237                      4020.431         1.630         1.660
  C238                      4465.885         1.752         1.775
  C239                      4444.463         1.746         1.769
  C240                      4428.568         1.743         1.765
  C241                      4430.791         1.750         1.769
  C242                      4497.438         1.760         1.776
  C243                      4617.013         1.780         1.785
  C244                      4520.928         1.775         1.779
  C245                      4525.047         1.776         1.777
  C246                      5321.863         2.371         2.567
  C247                      5240.777         2.352         2.543
  C248                      5277.320         2.357         2.546
  C249                      5225.079         2.339         2.525
  C250                      5226.106         2.343         2.525
  C251                      5265.398         2.345         2.526
  C252                      5826.353         2.441         2.635
  C253                      5851.535         2.446         2.638
  C254                      5860.388         2.446         2.635
  C255                      5848.458         2.440         2.627
  C256                      5904.845         2.504         2.657
  C257                      5882.109         2.504         2.653
  C258                      5884.515         2.503         2.651
  C259                      5919.779         2.509         2.654
  C260                      5889.884         2.499         2.643
  C261                      6151.527         2.514         2.670
  C262                      6206.725         2.518         2.670
  C263                      6132.903         2.507         2.656
  C264                      6125.245         2.505         2.649
  C265                      6416.042         3.609         3.376
  C266                      6438.385         3.619         3.381
  C267                      6431.564         3.614         3.376
  C268                      6456.634         3.626         3.382
  C269                      6462.971         3.604         3.369
  C270                      6497.298         3.618         3.378
  C271                      6496.492         3.604         3.368
  C272                      6509.965         3.602         3.366
  C273                      7051.061         3.696         3.465
  C274                      7030.306         3.690         3.458
  C275                      7005.914         3.685         3.451
  C276                      6990.047         3.681         3.447
  C277                      6962.388         3.676         3.441
  C278                      6950.134         3.674         3.438
  C279                      6943.160         3.676         3.437
  C280                      6939.403         3.670         3.432
  C281                      7237.643         3.705         3.478
  C282                      7257.114         3.707         3.479
  C283                      7354.666         3.717         3.483
  C284                      7357.937         3.718         3.482
  C285                      7369.133         3.718         3.481
  C286                      7373.005         3.719         3.480
  C287                      7367.146         3.718         3.477
  C288                      7342.747         3.714         3.473
  C289                      7334.301         3.712         3.470
  C290                      7335.555         3.712         3.468
  C291                      7291.553         3.706         3.463
  C292                      7713.010         3.734         3.528
  C293                      7695.966         3.731         3.524
  C294                      7703.673         3.732         3.524
  C295                      7657.449         3.726         3.518
  C296                      7663.749         3.727         3.517
  C297                      7687.726         3.729         3.519
  C298                      7686.547         3.729         3.517
  C299                      7647.431         3.725         3.512
  C300                      7676.524         3.726         3.514
  C301                      7605.144         3.721         3.507
  C302                       160.896         1.056         1.295
  C303                       264.170         0.716         0.869
  C353                       366.280         0.022         0.061
  

  Analysis begun on:  Tue Oct 10 16:54:28 2017
  Analysis ended on:  Tue Oct 10 16:54:45 2017
  Total elapsed time: 00:00:17