
  EPA STORM WATER MANAGEMENT MODEL - VERSION 5.1 (Build 5.1.010)
  --------------------------------------------------------------

  WARNING 04: minimum elevation drop used for Conduit C199
  WARNING 04: minimum elevation drop used for Conduit C200
  WARNING 02: maximum depth increased for Node FID1955
  WARNING 02: maximum depth increased for Node FID1960
  WARNING 02: maximum depth increased for Node FID1965
  WARNING 02: maximum depth increased for Node FID1968
  WARNING 02: maximum depth increased for Node FID2244
  WARNING 02: maximum depth increased for Node FID2442
  WARNING 02: maximum depth increased for Node FID2446
  WARNING 02: maximum depth increased for Node FID5504
  WARNING 02: maximum depth increased for Node FID5527
  WARNING 02: maximum depth increased for Node AFID6926
  WARNING 02: maximum depth increased for Node AFID7376
  
  *********************************************************
  NOTE: The summary statistics displayed in this report are
  based on results found at every computational time step,  
  not just on results from each reporting time step.
  *********************************************************
  
  ****************
  Analysis Options
  ****************
  Flow Units ............... CMS
  Process Models:
    Rainfall/Runoff ........ YES
    RDII ................... NO
    Snowmelt ............... NO
    Groundwater ............ NO
    Flow Routing ........... YES
    Ponding Allowed ........ YES
    Water Quality .......... YES
  Infiltration Method ...... GREEN_AMPT
  Flow Routing Method ...... DYNWAVE
  Starting Date ............ MAY-06-2016 15:00:00
  Ending Date .............. MAY-07-2016 00:00:00
  Antecedent Dry Days ...... 0.0
  Report Time Step ......... 00:01:00
  Wet Time Step ............ 00:01:00
  Dry Time Step ............ 01:00:00
  Routing Time Step ........ 5.00 sec
  Variable Time Step ....... YES
  Maximum Trials ........... 8
  Number of Threads ........ 3
  Head Tolerance ........... 0.001500 m
  
  
  **************************        Volume         Depth
  Runoff Quantity Continuity     hectare-m            mm
  **************************     ---------       -------
  Total Precipitation ......         2.583         6.709
  Evaporation Loss .........         0.000         0.000
  Infiltration Loss ........         1.385         3.597
  Surface Runoff ...........         0.349         0.905
  Final Storage ............         0.851         2.210
  Continuity Error (%) .....        -0.047
  
  
  **************************           TSS            TP           TDP
  Runoff Quality Continuity             kg            kg            kg
  **************************    ----------    ----------    ----------
  Initial Buildup ..........         0.000         0.000         0.000
  Surface Buildup ..........     26548.773         8.451        15.718
  Wet Deposition ...........         0.000         0.000         0.000
  Sweeping Removal .........         0.000         0.000         0.000
  Infiltration Loss ........         0.000         0.000         0.000
  BMP Removal ..............         1.281         0.000         0.001
  Surface Runoff ...........     12806.417         3.380         6.310
  Remaining Buildup ........     13741.075         5.070         9.408
  Continuity Error (%) .....         0.000         0.000         0.000
  
  
  **************************        Volume        Volume
  Flow Routing Continuity        hectare-m      10^6 ltr
  **************************     ---------     ---------
  Dry Weather Inflow .......         0.000         0.000
  Wet Weather Inflow .......         0.349         3.485
  Groundwater Inflow .......         0.000         0.000
  RDII Inflow ..............         0.000         0.000
  External Inflow ..........         1.384        13.843
  External Outflow .........         1.000        10.003
  Flooding Loss ............         0.000         0.000
  Evaporation Loss .........         0.000         0.000
  Exfiltration Loss ........         0.000         0.000
  Initial Stored Volume ....         0.000         0.000
  Final Stored Volume ......         0.740         7.403
  Continuity Error (%) .....        -0.454
  
  
  **************************           TSS            TP           TDP
  Quality Routing Continuity            kg            kg            kg
  **************************    ----------    ----------    ----------
  Dry Weather Inflow .......         0.000         0.000         0.000
  Wet Weather Inflow .......     12801.746         3.309         6.307
  Groundwater Inflow .......         0.000         0.000         0.000
  RDII Inflow ..............         0.000         0.000         0.000
  External Inflow ..........       137.985         1.039         1.284
  External Outflow .........     12467.938         3.789         6.816
  Flooding Loss ............         0.000         0.000         0.000
  Exfiltration Loss ........         0.000         0.000         0.000
  Mass Reacted .............         0.000         0.000         0.000
  Initial Stored Mass ......         0.000         0.000         0.000
  Final Stored Mass ........       157.841         0.486         0.753
  Continuity Error (%) .....         2.426         1.658         0.279
  
  
  *************************
  Highest Continuity Errors
  *************************
  Node FID2827 (6.50%)
  Node FID2824 (6.44%)
  Node J81 (2.38%)
  Node J72 (2.36%)
  Node J19 (2.25%)
  
  
  ***************************
  Time-Step Critical Elements
  ***************************
  Link C241 (88.77%)
  Link C14 (10.22%)
  
  
  ********************************
  Highest Flow Instability Indexes
  ********************************
  Link C241 (13)
  Link C240 (6)
  
  
  *************************
  Routing Time Step Summary
  *************************
  Minimum Time Step           :     0.69 sec
  Average Time Step           :     0.99 sec
  Maximum Time Step           :     5.00 sec
  Percent in Steady State     :     0.00
  Average Iterations per Step :     2.00
  Percent Not Converging      :     0.00
  
  
  ***************************
  Subcatchment Runoff Summary
  ***************************
  
  --------------------------------------------------------------------------------------------------------
                            Total      Total      Total      Total      Total       Total     Peak  Runoff
                           Precip      Runon       Evap      Infil     Runoff      Runoff   Runoff   Coeff
  Subcatchment                 mm         mm         mm         mm         mm    10^6 ltr      CMS
  --------------------------------------------------------------------------------------------------------
  S0                         5.84       0.00       0.00       5.19       0.16        0.00     0.00   0.027
  S1                         5.84       0.00       0.00       3.16       0.64        0.06     0.03   0.109
  S2                         6.35       0.00       0.00       2.84       0.96        0.17     0.08   0.151
  S3                         5.84       0.00       0.00       4.18       0.40        0.01     0.02   0.069
  S4                         5.84       0.00       0.00       3.33       0.60        0.06     0.06   0.103
  S6                         6.35       0.00       0.00       2.11       1.16        0.02     0.01   0.183
  S7                         6.35       0.00       0.00       1.66       2.41        0.94     0.30   0.380
  S8                         6.35       0.00       0.00       2.12       1.16        0.00     0.00   0.183
  S9                         6.35       0.00       0.00       2.69       1.01        0.00     0.00   0.158
  S10                        6.35       0.00       0.00       2.79       0.98        0.00     0.00   0.155
  S11                        6.35       0.00       0.00       5.27       0.30        0.00     0.00   0.047
  S12                        6.35       0.00       0.00       2.97       0.93        0.00     0.00   0.147
  S13                        6.35       0.00       0.00       3.16       0.87        0.07     0.03   0.137
  S14                        6.35       0.00       0.00       4.84       0.42        0.00     0.00   0.066
  S16                        6.35       0.00       0.00       1.44       0.43        0.02     0.01   0.068
  S17                        6.35       0.00       0.00       2.92       0.94        0.18     0.09   0.148
  S18                        6.35       0.00       0.00       2.40       1.09        0.00     0.00   0.171
  S19                        6.35       0.00       0.00       4.05       0.63        0.01     0.01   0.099
  S20                        6.35       0.00       0.00       3.05       0.91        0.00     0.00   0.143
  S21                        6.35       0.00       0.00       2.90       0.21        0.11     0.03   0.034
  S22                        6.35       0.00       0.00       2.64       1.02        0.00     0.00   0.161
  S23                        6.35       0.00       0.00       4.34       0.55        0.01     0.01   0.087
  S24                        6.35       0.00       0.00       4.17       0.60        0.01     0.01   0.094
  S25                        6.35       0.00       0.00       3.22       0.86        0.01     0.01   0.135
  S27                        6.35       0.00       0.00       3.50       0.78        0.00     0.00   0.123
  S28                        5.84       0.00       0.00       5.83       0.00        0.00     0.00   0.000
  S29                        5.84       0.00       0.00       5.81       0.01        0.00     0.00   0.002
  S30                        6.35       0.00       0.00       6.33       0.01        0.00     0.00   0.001
  S31                        6.35       0.00       0.00       6.34       0.00        0.00     0.00   0.000
  S32                        6.35       0.00       0.00       5.02       0.37        0.00     0.00   0.058
  S33                        6.35       0.00       0.00       2.50       1.06        0.01     0.01   0.166
  S34                        6.35       0.00       0.00       3.39       0.75        0.26     0.09   0.118
  S35                        6.35       0.00       0.00       4.16       0.60        0.00     0.00   0.095
  S36                        6.35       0.00       0.00       5.31       0.29        0.00     0.00   0.045
  S37                        6.35       0.00       0.00       2.76       0.99        0.01     0.00   0.156
  S39                        6.35       0.00       0.00       4.27       0.57        0.08     0.05   0.090
  S40                        6.35       0.00       0.00       4.81       0.42        0.01     0.01   0.067
  S41                        6.35       0.00       0.00       3.03       0.91        0.12     0.07   0.143
  S42                        6.35       0.00       0.00       3.35       0.82        0.08     0.04   0.130
  S43                        6.35       0.00       0.00       5.06       0.35        0.01     0.00   0.056
  S44                        6.35       0.00       0.00       3.40       0.81        0.18     0.09   0.127
  S45                        8.13       0.00       0.00       5.54       1.00        0.00     0.00   0.123
  S47                        8.13       0.00       0.00       4.75       1.29        0.05     0.07   0.159
  S48                        8.13       0.00       0.00       5.24       1.12        0.00     0.00   0.138
  S49                        8.13       0.00       0.00       4.85       1.24        0.23     0.22   0.152
  S51                        8.13       0.00       0.00       7.30       0.32        0.00     0.00   0.040
  S52                        8.13       0.00       0.00       5.09       1.16        0.08     0.09   0.142
  S53                        8.13       0.00       0.00       4.98       1.19        0.17     0.17   0.147
  S54                        8.13       0.00       0.00       5.74       0.90        0.08     0.04   0.110
  S55                        8.13       0.00       0.00       5.09       1.14        0.19     0.08   0.140
  S56                        8.13       0.00       0.00       6.49       0.62        0.00     0.00   0.076
  S57                        8.13       0.00       0.00       4.70       1.29        0.01     0.01   0.159
  S58                        8.13       0.00       0.00       5.33       1.05        0.04     0.02   0.129
  S59                        8.13       0.00       0.00       7.30       0.31        0.01     0.00   0.038
  S60                        8.13       0.00       0.00       6.41       0.64        0.02     0.01   0.079
  S61                        8.13       0.00       0.00       7.42       0.27        0.00     0.00   0.033
  S62                        8.13       0.00       0.00       7.06       0.41        0.01     0.01   0.050
  S63                        6.35       0.00       0.00       5.54       0.22        0.00     0.00   0.035
  S64                        6.35       0.00       0.00       3.56       0.77        0.01     0.01   0.121
  S65                        6.35       0.00       0.00       4.65       0.47        0.08     0.04   0.073
  
  
  ****************************
  Subcatchment Washoff Summary
  ****************************
  
  --------------------------------------------------------------
                                 TSS            TP           TDP
  Subcatchment                    kg            kg            kg
  --------------------------------------------------------------
  S0                           0.434         0.000         0.000
  S1                         278.024         0.148         0.197
  S2                         497.953         0.217         0.315
  S3                          60.679         0.052         0.068
  S4                         253.117         0.144         0.179
  S6                          39.130         0.025         0.034
  S7                         736.824         0.224         0.323
  S8                           0.665         0.000         0.000
  S9                           0.771         0.000         0.000
  S10                          8.414         0.004         0.003
  S11                          0.824         0.000         0.000
  S12                          0.441         0.000         0.000
  S13                        157.462         0.105         0.142
  S14                         32.113         0.005         0.016
  S16                          3.632         0.009         0.011
  S17                        613.840         0.238         0.373
  S18                          0.830         0.000         0.000
  S19                        120.335         0.016         0.056
  S20                         21.928         0.005         0.008
  S21                        698.521         0.048         0.289
  S22                          5.635         0.002         0.001
  S23                        106.860         0.008         0.061
  S24                         51.843         0.028         0.036
  S25                         78.857         0.007         0.042
  S27                         25.440         0.005         0.010
  S28                          0.000         0.000         0.000
  S29                          0.000         0.000         0.000
  S30                          0.000         0.000         0.000
  S31                          0.000         0.000         0.000
  S32                         26.413         0.002         0.014
  S33                         42.139         0.014         0.018
  S34                       2016.422         0.304         0.478
  S35                         17.397         0.003         0.007
  S36                         71.346         0.005         0.032
  S37                         29.492         0.005         0.013
  S39                        655.624         0.151         0.375
  S40                        141.297         0.012         0.078
  S41                        389.983         0.184         0.237
  S42                        378.689         0.122         0.189
  S43                        124.026         0.009         0.067
  S44                        883.810         0.261         0.459
  S45                          1.975         0.000         0.001
  S47                        157.978         0.045         0.082
  S48                         10.791         0.003         0.003
  S49                        724.536         0.190         0.377
  S51                         66.927         0.005         0.038
  S52                        235.097         0.076         0.123
  S53                        385.079         0.174         0.225
  S54                        459.622         0.075         0.228
  S55                        715.497         0.152         0.359
  S56                          0.230         0.000         0.000
  S57                         50.977         0.005         0.024
  S58                        136.073         0.045         0.063
  S59                         80.642         0.016         0.025
  S60                        166.397         0.013         0.095
  S61                         43.465         0.002         0.009
  S62                        162.422         0.011         0.095
  S63                         72.067         0.007         0.018
  S64                         90.584         0.006         0.052
  S65                        674.848         0.187         0.357
  --------------------------------------------------------------
  System                   12806.417         3.380         6.310
  
  
  ******************
  Node Depth Summary
  ******************
  
  ---------------------------------------------------------------------------------
                                 Average  Maximum  Maximum  Time of Max    Reported
                                   Depth    Depth      HGL   Occurrence   Max Depth
  Node                 Type       Meters   Meters   Meters  days hr:min      Meters
  ---------------------------------------------------------------------------------
  FID1936              JUNCTION     0.15     0.30  1376.60     0  04:05        0.09
  FID1955              JUNCTION     0.15     0.26  1376.18     0  04:15        0.08
  FID1960              JUNCTION     0.15     0.23  1376.09     0  04:15        0.07
  FID1965              JUNCTION     0.14     0.22  1376.52     0  04:15        0.07
  FID1968              JUNCTION     0.13     0.19  1376.59     0  04:14        0.06
  FID2239              JUNCTION     0.14     0.24  1374.75     0  04:05        0.07
  FID2241              JUNCTION     0.13     0.18  1373.31     0  04:05        0.06
  FID2242              JUNCTION     0.13     0.19  1374.23     0  04:05        0.06
  FID2244              JUNCTION     0.13     0.17  1374.53     0  04:05        0.05
  FID2440              JUNCTION     0.45     0.58  1374.83     0  04:21        0.18
  FID2442              JUNCTION     0.00     0.00  1375.27     0  00:00        0.00
  FID2446              JUNCTION     0.15     0.35  1376.15     0  04:05        0.11
  FID2447              JUNCTION     0.14     0.32  1376.02     0  04:05        0.10
  FID2455              JUNCTION     0.36     0.51  1374.50     0  04:30        0.16
  FID2711              JUNCTION     0.13     0.21  1370.39     0  04:05        0.06
  FID2719              JUNCTION     0.15     0.31  1370.41     0  04:05        0.09
  FID2720              JUNCTION     0.15     0.29  1370.49     0  04:05        0.09
  FID2824              JUNCTION     0.11     0.17  1371.45     0  04:10        0.05
  FID2827              JUNCTION     0.12     0.21  1371.51     0  04:10        0.06
  FID2828              JUNCTION     0.13     0.20  1371.52     0  03:55        0.06
  FID2832              JUNCTION     0.15     0.25  1370.85     0  04:10        0.08
  FID2833              JUNCTION     0.18     0.36  1370.98     0  04:10        0.11
  FID2839              JUNCTION     0.18     0.32  1371.52     0  04:20        0.10
  FID2873              JUNCTION     0.15     0.23  1370.93     0  04:10        0.07
  FID2964              JUNCTION     0.15     0.20  1370.98     0  04:10        0.06
  FID2965              JUNCTION     0.42     0.65  1370.91     0  05:26        0.20
  FID4584              JUNCTION     0.11     0.19  1371.53     0  04:09        0.06
  FID5068              JUNCTION     0.13     0.18  1375.56     0  04:05        0.05
  FID5072              JUNCTION     0.54     0.71  1374.00     0  04:42        0.22
  FID5140              JUNCTION     0.16     0.25  1373.47     0  04:20        0.08
  FID5435              JUNCTION     0.15     0.21  1372.96     0  04:05        0.06
  FID5437              JUNCTION     0.12     0.17  1373.12     0  04:05        0.05
  FID5503              JUNCTION     0.11     0.16  1371.49     0  04:20        0.05
  FID5504              JUNCTION     0.15     0.21  1371.57     0  04:10        0.07
  FID5527              JUNCTION     0.14     0.19  1372.69     0  04:10        0.06
  FID5568              JUNCTION     0.51     0.70  1373.09     0  04:52        0.21
  FID5784              JUNCTION     0.51     0.70  1372.70     0  04:57        0.21
  FID5785              JUNCTION     0.13     0.21  1374.64     0  04:05        0.06
  AFID6926             JUNCTION     0.14     0.21  1370.01     0  04:15        0.06
  AFID7360             JUNCTION     0.47     0.73  1370.86     0  05:28        0.22
  AFID7363             JUNCTION     0.46     0.71  1370.88     0  05:27        0.22
  AFID7376             JUNCTION     0.16     0.30  1371.53     0  04:10        0.09
  AFID7377             JUNCTION     0.39     0.57  1371.25     0  05:17        0.17
  AFID7705             JUNCTION     0.57     0.63  1375.60     0  04:16        0.19
  AFID7706             JUNCTION     0.63     0.69  1375.61     0  04:16        0.21
  AFID7792             JUNCTION     0.16     0.29  1375.09     0  04:05        0.09
  AFID8223             JUNCTION     0.51     0.71  1372.71     0  04:57        0.21
  J1                   JUNCTION     0.83     0.84  1375.84     0  04:26        0.26
  FID4901              JUNCTION     0.54     0.59  1375.66     0  04:20        0.18
  J9                   JUNCTION     0.71     0.73  1375.82     0  04:26        0.22
  J11                  JUNCTION     0.56     0.58  1375.79     0  04:26        0.18
  J12                  JUNCTION     0.55     0.58  1375.70     0  04:25        0.18
  J13                  JUNCTION     0.54     0.59  1375.67     0  04:24        0.18
  FID4902              JUNCTION     0.56     0.61  1375.65     0  04:20        0.18
  J14                  JUNCTION     0.44     0.53  1375.44     0  04:20        0.16
  J15                  JUNCTION     0.41     0.52  1375.18     0  04:21        0.16
  J16                  JUNCTION     0.42     0.53  1375.17     0  04:22        0.16
  FID2449              JUNCTION     0.46     0.59  1374.91     0  04:25        0.18
  J17                  JUNCTION     0.35     0.51  1374.48     0  04:30        0.16
  J19                  JUNCTION     0.49     0.67  1374.21     0  04:38        0.20
  FID5069              JUNCTION     0.56     0.74  1374.00     0  04:42        0.23
  FID5139              JUNCTION     0.51     0.71  1373.06     0  04:52        0.22
  J24                  JUNCTION     0.52     0.71  1373.08     0  04:52        0.22
  FID4984              JUNCTION     0.53     0.73  1372.69     0  04:57        0.22
  FID2669              JUNCTION     0.33     0.54  1368.98     0  04:45        0.16
  FID2712              JUNCTION     0.36     0.56  1369.76     0  04:39        0.17
  FID2718              JUNCTION     0.36     0.57  1369.81     0  04:39        0.17
  FID2838              JUNCTION     0.56     0.82  1370.76     0  04:33        0.25
  FID2825              JUNCTION     0.61     0.88  1370.79     0  05:29        0.27
  FID2823              JUNCTION     0.64     0.94  1370.81     0  05:29        0.29
  FID5505              JUNCTION     0.53     0.81  1370.83     0  05:28        0.25
  FID5436              JUNCTION     0.51     0.70  1372.02     0  05:06        0.21
  FID5438              JUNCTION     0.45     0.64  1372.06     0  05:05        0.19
  J49                  JUNCTION     0.57     0.62  1375.65     0  04:19        0.19
  J50                  JUNCTION     0.61     0.66  1375.63     0  04:18        0.20
  J51                  JUNCTION     0.66     0.72  1375.61     0  04:16        0.22
  J52                  JUNCTION     0.67     0.73  1375.61     0  04:16        0.22
  J53                  JUNCTION     0.44     0.53  1375.45     0  04:20        0.16
  J54                  JUNCTION     0.45     0.52  1375.48     0  04:21        0.16
  J55                  JUNCTION     0.50     0.56  1375.59     0  04:22        0.17
  J56                  JUNCTION     0.48     0.54  1375.57     0  04:22        0.16
  J57                  JUNCTION     0.45     0.52  1375.54     0  04:22        0.16
  J58                  JUNCTION     0.45     0.52  1375.50     0  04:22        0.16
  FID1935              JUNCTION     0.45     0.53  1375.42     0  04:20        0.16
  J59                  JUNCTION     0.44     0.53  1375.40     0  04:21        0.16
  J60                  JUNCTION     0.43     0.52  1375.35     0  04:22        0.16
  J61                  JUNCTION     0.41     0.51  1375.28     0  04:23        0.16
  J62                  JUNCTION     0.41     0.50  1375.25     0  04:23        0.15
  J63                  JUNCTION     0.42     0.53  1375.21     0  04:22        0.16
  J64                  JUNCTION     0.40     0.52  1375.13     0  04:23        0.16
  J65                  JUNCTION     0.37     0.50  1375.07     0  04:24        0.15
  J66                  JUNCTION     0.44     0.58  1374.79     0  04:22        0.18
  J67                  JUNCTION     0.44     0.57  1374.72     0  04:24        0.17
  J68                  JUNCTION     0.42     0.55  1374.62     0  04:30        0.17
  J69                  JUNCTION     0.55     0.73  1374.45     0  04:31        0.22
  J70                  JUNCTION     0.54     0.71  1374.36     0  04:33        0.22
  J71                  JUNCTION     0.52     0.69  1374.29     0  04:35        0.21
  J72                  JUNCTION     0.55     0.72  1374.07     0  04:41        0.22
  J73                  JUNCTION     0.56     0.74  1373.96     0  04:43        0.23
  J74                  JUNCTION     0.56     0.74  1373.72     0  04:47        0.23
  J75                  JUNCTION     0.57     0.74  1373.59     0  04:49        0.23
  J76                  JUNCTION     0.51     0.71  1373.05     0  04:52        0.22
  J77                  JUNCTION     0.51     0.71  1372.91     0  04:54        0.22
  J78                  JUNCTION     0.51     0.71  1372.78     0  04:56        0.22
  J79                  JUNCTION     0.51     0.70  1372.71     0  04:57        0.21
  J80                  JUNCTION     0.43     0.61  1372.10     0  05:05        0.19
  J81                  JUNCTION     0.48     0.68  1371.67     0  05:13        0.21
  J82                  JUNCTION     0.47     0.67  1371.60     0  05:14        0.20
  J83                  JUNCTION     0.40     0.60  1371.41     0  05:16        0.18
  J84                  JUNCTION     0.36     0.54  1371.18     0  05:19        0.16
  J85                  JUNCTION     0.37     0.56  1371.08     0  05:21        0.17
  J86                  JUNCTION     0.38     0.60  1370.97     0  05:24        0.18
  J87                  JUNCTION     0.45     0.69  1370.88     0  05:27        0.21
  J88                  JUNCTION     0.52     0.79  1370.84     0  05:28        0.24
  J89                  JUNCTION     0.56     0.84  1370.83     0  05:28        0.26
  J90                  JUNCTION     0.53     0.79  1370.74     0  04:33        0.24
  J91                  JUNCTION     0.53     0.79  1370.68     0  04:35        0.24
  J92                  JUNCTION     0.52     0.79  1370.63     0  04:35        0.24
  J93                  JUNCTION     0.52     0.79  1370.51     0  04:37        0.24
  J94                  JUNCTION     0.51     0.78  1370.44     0  04:37        0.24
  J95                  JUNCTION     0.51     0.78  1370.42     0  04:37        0.24
  J96                  JUNCTION     0.50     0.77  1370.33     0  04:38        0.23
  J97                  JUNCTION     0.49     0.76  1370.25     0  04:39        0.23
  J98                  JUNCTION     0.48     0.74  1370.19     0  04:40        0.23
  J99                  JUNCTION     0.46     0.72  1370.12     0  04:40        0.22
  J100                 JUNCTION     0.45     0.70  1370.06     0  04:40        0.21
  J101                 JUNCTION     0.43     0.66  1369.98     0  04:40        0.20
  J102                 JUNCTION     0.36     0.57  1369.84     0  04:39        0.17
  J103                 JUNCTION     0.36     0.57  1369.79     0  04:39        0.17
  J104                 JUNCTION     0.35     0.56  1369.72     0  04:40        0.17
  J105                 JUNCTION     0.35     0.55  1369.67     0  04:40        0.17
  J106                 JUNCTION     0.33     0.53  1369.61     0  04:41        0.16
  J107                 JUNCTION     0.33     0.53  1369.47     0  04:42        0.16
  J108                 JUNCTION     0.33     0.53  1369.33     0  04:42        0.16
  J109                 JUNCTION     0.33     0.53  1369.22     0  04:43        0.16
  J110                 JUNCTION     0.33     0.53  1369.12     0  04:44        0.16
  J111                 JUNCTION     0.33     0.54  1369.02     0  04:44        0.16
  J112                 JUNCTION     0.33     0.54  1368.86     0  04:45        0.16
  J113                 JUNCTION     0.33     0.54  1368.77     0  04:45        0.16
  J114                 JUNCTION     0.33     0.54  1368.65     0  04:46        0.16
  J115                 JUNCTION     0.33     0.54  1368.59     0  04:46        0.16
  J116                 JUNCTION     0.33     0.54  1368.52     0  04:47        0.17
  J117                 JUNCTION     0.33     0.55  1368.42     0  04:47        0.17
  J118                 JUNCTION     0.34     0.55  1368.33     0  04:47        0.17
  J119                 JUNCTION     0.34     0.56  1368.27     0  04:48        0.17
  J120                 JUNCTION     0.36     0.59  1368.19     0  04:48        0.18
  FID2451              JUNCTION     0.44     0.58  1374.86     0  04:23        0.18
  J121                 JUNCTION     0.38     0.58  1371.32     0  05:17        0.18
  J122                 JUNCTION     0.38     0.58  1371.29     0  05:17        0.18
  FID3706              JUNCTION     0.52     0.79  1370.53     0  04:36        0.24
  FID2831              JUNCTION     0.51     0.78  1370.41     0  04:37        0.24
  FID2689              OUTFALL      0.18     0.31  1367.81     0  04:48        0.09
  
  
  *******************
  Node Inflow Summary
  *******************
  
  -------------------------------------------------------------------------------------------------
                                  Maximum  Maximum                  Lateral       Total        Flow
                                  Lateral    Total  Time of Max      Inflow      Inflow     Balance
                                   Inflow   Inflow   Occurrence      Volume      Volume       Error
  Node                 Type           CMS      CMS  days hr:min    10^6 ltr    10^6 ltr     Percent
  -------------------------------------------------------------------------------------------------
  FID1936              JUNCTION     0.092    0.092     0  04:05      0.0777      0.0777       0.219
  FID1955              JUNCTION     0.077    0.077     0  04:15       0.186       0.186       0.094
  FID1960              JUNCTION     0.035    0.035     0  04:15      0.0848      0.0848       0.204
  FID1965              JUNCTION     0.018    0.018     0  04:15      0.0428      0.0428       0.409
  FID1968              JUNCTION     0.005    0.005     0  04:15      0.0129      0.0129       1.371
  FID2239              JUNCTION     0.006    0.006     0  04:05      0.0115      0.0115       3.420
  FID2241              JUNCTION     0.000    0.006     0  04:05           0      0.0107       1.646
  FID2242              JUNCTION     0.006    0.006     0  04:05      0.0108      0.0108       1.674
  FID2244              JUNCTION     0.002    0.002     0  04:05      0.0042      0.0042       4.328
  FID2440              JUNCTION     0.000    0.707     0  04:20           0        12.5       0.385
  FID2442              JUNCTION     0.000    0.000     0  00:00           0           0       0.000 ltr
  FID2446              JUNCTION     0.066    0.066     0  04:05       0.055       0.055       0.494
  FID2447              JUNCTION     0.000    0.066     0  04:05           0      0.0547       0.175
  FID2455              JUNCTION     0.044    0.706     0  04:22      0.0836        12.3       0.404
  FID2711              JUNCTION     0.000    0.016     0  04:05           0      0.0127       1.240
  FID2719              JUNCTION     0.062    0.062     0  04:05        0.06        0.06       0.289
  FID2720              JUNCTION     0.018    0.018     0  04:05       0.013       0.013       1.720
  FID2824              JUNCTION     0.000    0.002     0  04:10    0.000191     0.00258       6.888
  FID2827              JUNCTION     0.000    0.002     0  04:10    0.000217     0.00256       6.949
  FID2828              JUNCTION     0.001    0.001     0  04:10     0.00256     0.00256       9.307
  FID2832              JUNCTION     0.000    0.083     0  04:10           0       0.165       0.146
  FID2833              JUNCTION     0.083    0.083     0  04:10       0.166       0.166       0.128
  FID2839              JUNCTION     0.301    0.301     0  04:20       0.944       0.944       0.040
  FID2873              JUNCTION     0.011    0.011     0  04:10      0.0218      0.0218       1.754
  FID2964              JUNCTION     0.006    0.006     0  04:10      0.0239      0.0239       0.779
  FID2965              JUNCTION     0.000    0.715     0  05:20           0        10.2       0.674
  FID4584              JUNCTION     0.000    0.001     0  04:06           0    0.000304      90.031
  FID5068              JUNCTION     0.003    0.003     0  04:05     0.00516     0.00516       3.492
  FID5072              JUNCTION     0.046    0.705     0  04:38      0.0844        11.6       0.373
  FID5140              JUNCTION     0.086    0.086     0  04:20       0.264       0.264       0.071
  FID5435              JUNCTION     0.025    0.025     0  04:05       0.115       0.115       0.156
  FID5437              JUNCTION     0.001    0.001     0  04:05     0.00141     0.00141      14.128
  FID5503              JUNCTION     0.000    0.000     0  03:55    0.000205    0.000205     560.383
  FID5504              JUNCTION     0.033    0.033     0  04:10      0.0657      0.0657       0.288
  FID5527              JUNCTION     0.007    0.007     0  04:10      0.0136      0.0136       1.248
  FID5568              JUNCTION     0.001    0.696     0  04:50     0.00202        11.1       1.390
  FID5784              JUNCTION     0.000    0.721     0  04:54           0        11.1       0.182
  FID5785              JUNCTION     0.000    0.006     0  04:05           0      0.0111       1.046
  AFID6926             JUNCTION     0.027    0.027     0  04:15      0.0626      0.0626       0.280
  AFID7360             JUNCTION     0.000    0.713     0  05:23    0.000124          10       0.510
  AFID7363             JUNCTION     0.000    0.713     0  05:22           0        10.1       0.231
  AFID7376             JUNCTION     0.086    0.086     0  04:10        0.18        0.18       0.100
  AFID7377             JUNCTION     0.000    0.718     0  05:15           0        10.4       0.233
  AFID7705             JUNCTION     0.000    0.540     0  04:15           0        13.2       0.359
  AFID7706             JUNCTION     0.000    0.509     0  04:17           0        13.1       0.333
  AFID7792             JUNCTION     0.089    0.089     0  04:05       0.182       0.182       0.094
  AFID8223             JUNCTION     0.000    0.721     0  04:54           0        11.1       0.044
  J1                   JUNCTION     0.659    0.659     0  04:15          21          21       0.190
  FID4901              JUNCTION     0.000    0.450     0  04:30           0        13.5       0.312
  J9                   JUNCTION     0.000    0.661     0  00:01           0        20.9       0.394
  J11                  JUNCTION     0.000    0.658     0  04:15           0        20.9       0.726
  J12                  JUNCTION     0.003    0.659     0  04:30     0.00788        20.7       0.796
  J13                  JUNCTION    -0.220    0.662     0  04:36       -7.13        20.6      -0.225
  FID4902              JUNCTION     0.000    0.453     0  04:30           0        13.5       0.494
  J14                  JUNCTION     0.174    0.589     0  04:20       0.166        12.9       0.280
  J15                  JUNCTION     0.224    0.697     0  04:05       0.232        12.8       0.246
  J16                  JUNCTION     0.004    0.685     0  04:05     0.00323        12.8       0.247
  FID2449              JUNCTION     0.001    0.642     0  04:24    0.000465        12.6       1.956
  J17                  JUNCTION     0.066    0.752     0  04:20       0.124        12.4       0.209
  J19                  JUNCTION     0.006    0.717     0  04:32      0.0108        12.1       2.299
  FID5069              JUNCTION     0.000    0.704     0  04:39           0        11.6       0.328
  FID5139              JUNCTION     0.000    0.722     0  04:49           0        11.2       0.107
  J24                  JUNCTION     0.007    0.695     0  04:53      0.0123          11       0.151
  FID4984              JUNCTION     0.000    0.721     0  04:55           0        11.1       1.574
  FID2669              JUNCTION     0.000    0.763     0  04:43           0        10.2       0.167
  FID2712              JUNCTION     0.000    0.753     0  04:36           0        10.4       0.195
  FID2718              JUNCTION     0.000    0.749     0  04:35           0        10.4       0.141
  FID2838              JUNCTION     0.000    0.740     0  04:30           0        10.8       0.377
  FID2825              JUNCTION     0.000    0.711     0  05:28           0        9.97       0.630
  FID2823              JUNCTION     0.000    0.712     0  05:26           0          10       1.058
  FID5505              JUNCTION     0.000    0.712     0  05:24           0          10       0.304
  FID5436              JUNCTION     0.000    0.722     0  05:02           0        10.8       1.747
  FID5438              JUNCTION     0.000    0.718     0  05:02           0        10.8       0.286
  J49                  JUNCTION     0.000    0.453     0  04:30           0        13.4       0.806
  J50                  JUNCTION     0.000    0.457     0  04:35     9.5e-05        13.3       1.376
  J51                  JUNCTION     0.000    0.464     0  04:35           0        13.1       1.076
  J52                  JUNCTION     0.000    0.469     0  04:35           0          13       0.315
  J53                  JUNCTION     0.000    0.535     0  04:29           0        12.8       0.318
  J54                  JUNCTION     0.000    0.533     0  04:15           0        12.9       0.470
  J55                  JUNCTION     0.000    0.539     0  04:15           0        13.1       0.427
  J56                  JUNCTION     0.000    0.537     0  04:15           0        13.1       0.471
  J57                  JUNCTION     0.000    0.536     0  04:15           0          13       0.598
  J58                  JUNCTION     0.001    0.535     0  04:16     0.00232        12.9       0.641
  FID1935              JUNCTION     0.000    0.663     0  04:05           0          13       0.365
  J59                  JUNCTION     0.000    0.647     0  04:05           0        12.9       0.533
  J60                  JUNCTION     0.004    0.620     0  04:05     0.00325        12.9       0.832
  J61                  JUNCTION     0.000    0.596     0  04:21           0        12.7       0.564
  J62                  JUNCTION     0.000    0.593     0  04:23           0        12.7       0.258
  J63                  JUNCTION     0.000    0.594     0  04:24           0        12.6       0.260
  J64                  JUNCTION     0.000    0.673     0  04:05           0        12.8       0.265
  J65                  JUNCTION     0.012    0.669     0  04:05      0.0104        12.8       1.565
  J66                  JUNCTION     0.000    0.702     0  04:20           0        12.5       0.484
  J67                  JUNCTION     0.000    0.695     0  04:20           0        12.4       0.715
  J68                  JUNCTION     0.004    0.688     0  04:22     0.00682        12.3       0.762
  J69                  JUNCTION     0.000    0.747     0  04:20           0        12.4       0.794
  J70                  JUNCTION     0.002    0.735     0  04:21     0.00344        12.3       1.029
  J71                  JUNCTION     0.000    0.721     0  04:31           0        12.1       0.763
  J72                  JUNCTION     0.005    0.706     0  04:36     0.00927        11.8       2.417
  J73                  JUNCTION     0.000    0.703     0  04:39           0        11.5       0.783
  J74                  JUNCTION     0.000    0.702     0  04:42           0        11.4       1.146
  J75                  JUNCTION     0.002    0.699     0  04:45     0.00357        11.3       1.771
  J76                  JUNCTION     0.000    0.722     0  04:50           0        11.2       0.425
  J77                  JUNCTION     0.039    0.724     0  04:50      0.0785        11.2       0.785
  J78                  JUNCTION     0.000    0.722     0  04:52           0        11.2       0.585
  J79                  JUNCTION     0.000    0.721     0  04:54           0        11.1       0.212
  J80                  JUNCTION     0.005    0.721     0  04:58     0.00907        10.9       1.368
  J81                  JUNCTION     0.001    0.720     0  05:06     0.00159        10.7       2.441
  J82                  JUNCTION     0.000    0.717     0  05:11           0        10.4       0.987
  J83                  JUNCTION     0.000    0.716     0  05:13           0        10.3       0.801
  J84                  JUNCTION     0.000    0.718     0  05:16           0        10.4       0.425
  J85                  JUNCTION     0.000    0.717     0  05:17           0        10.3       0.799
  J86                  JUNCTION     0.000    0.716     0  05:19           0        10.2       0.878
  J87                  JUNCTION     0.001    0.714     0  05:22     0.00245        10.1       0.374
  J88                  JUNCTION     0.000    0.712     0  05:24           0          10       0.521
  J89                  JUNCTION     0.000    0.712     0  05:25           0          10       0.851
  J90                  JUNCTION     0.000    0.737     0  04:30           0        10.6       0.294
  J91                  JUNCTION     0.000    0.733     0  04:30           0        10.6       0.396
  J92                  JUNCTION     0.000    0.727     0  04:31    1.11e-06        10.6       0.503
  J93                  JUNCTION     0.000    0.725     0  05:30           0        10.5       0.273
  J94                  JUNCTION     0.000    0.725     0  05:31    1.89e-06        10.5       0.296
  J95                  JUNCTION     0.000    0.724     0  05:32           0        10.4       0.114
  J96                  JUNCTION     0.000    0.744     0  04:34           0        10.5       0.429
  J97                  JUNCTION     0.000    0.741     0  04:36           0        10.5       0.364
  J98                  JUNCTION     0.000    0.739     0  04:37           0        10.5       0.319
  J99                  JUNCTION     0.000    0.738     0  04:39           0        10.4       0.269
  J100                 JUNCTION     0.000    0.738     0  04:40           0        10.4       0.228
  J101                 JUNCTION     0.000    0.738     0  04:40           0        10.4       0.262
  J102                 JUNCTION     0.000    0.738     0  04:41           0        10.3       0.212
  J103                 JUNCTION     0.000    0.749     0  04:37           0        10.4       0.159
  J104                 JUNCTION     0.000    0.751     0  04:37           0        10.3       0.208
  J105                 JUNCTION     0.000    0.751     0  04:38           0        10.3       0.256
  J106                 JUNCTION     0.000    0.750     0  04:39           0        10.3       0.291
  J107                 JUNCTION     0.000    0.750     0  04:40           0        10.3       0.300
  J108                 JUNCTION     0.000    0.749     0  04:41    6.04e-06        10.2       0.272
  J109                 JUNCTION     0.000    0.749     0  04:42           0        10.2       0.231
  J110                 JUNCTION     0.000    0.748     0  04:43           0        10.2       0.226
  J111                 JUNCTION     0.000    0.748     0  04:43    5.16e-05        10.2       0.164
  J112                 JUNCTION     0.000    0.763     0  04:44           0        10.2       0.234
  J113                 JUNCTION     0.000    0.762     0  04:45           0        10.2       0.230
  J114                 JUNCTION     0.000    0.762     0  04:45           0        10.1       0.193
  J115                 JUNCTION     0.000    0.762     0  04:45           0        10.1       0.145
  J116                 JUNCTION     0.000    0.762     0  04:46    1.88e-06        10.1       0.193
  J117                 JUNCTION     0.000    0.761     0  04:46           0        10.1       0.239
  J118                 JUNCTION     0.000    0.761     0  04:47           0        10.1       0.209
  J119                 JUNCTION     0.000    0.761     0  04:47           0          10       0.207
  J120                 JUNCTION     0.000    0.761     0  04:48           0          10       0.244
  FID2451              JUNCTION     0.000    0.645     0  04:25           0        12.4       0.371
  J121                 JUNCTION     0.003    0.716     0  05:15      0.0048        10.2       0.230
  J122                 JUNCTION     0.000    0.715     0  05:15    0.000218        10.2       0.195
  FID3706              JUNCTION     0.000    0.727     0  04:33           0        10.5       0.387
  FID2831              JUNCTION     0.000    0.746     0  04:33           0        10.6       0.269
  FID2689              OUTFALL      0.000    0.760     0  04:48           0          10       0.000
  
  
  **********************
  Node Surcharge Summary
  **********************
  
  No nodes were surcharged.
  
  
  *********************
  Node Flooding Summary
  *********************
  
  No nodes were flooded.
  
  
  ***********************
  Outfall Loading Summary
  ***********************
  
  -----------------------------------------------------------------------------------------------------
                         Flow       Avg       Max       Total         Total         Total         Total
                         Freq      Flow      Flow      Volume           TSS            TP           TDP
  Outfall Node           Pcnt       CMS       CMS    10^6 ltr            kg            kg            kg
  -----------------------------------------------------------------------------------------------------
  FID2689               68.72     0.595     0.760      10.003     12337.532         3.435         6.354
  -----------------------------------------------------------------------------------------------------
  System                68.72     0.595     0.760      10.003     12337.532         3.435         6.354
  
  
  ********************
  Link Flow Summary
  ********************
  
  -----------------------------------------------------------------------------
                                 Maximum  Time of Max   Maximum    Max/    Max/
                                  |Flow|   Occurrence   |Veloc|    Full    Full
  Link                 Type          CMS  days hr:min     m/sec    Flow   Depth
  -----------------------------------------------------------------------------
  FID1123              CONDUIT     0.011     0  04:10      0.73    0.15    0.30
  FID1139              CONDUIT     0.060     0  04:05      1.37    0.35    0.41
  FID1148              CONDUIT     0.083     0  04:10      0.87    0.17    0.20
  FID1149              CONDUIT     0.083     0  04:10      2.19    0.02    0.21
  FID3364              CONDUIT     0.085     0  04:10      0.60    0.06    0.28
  FID3671              CONDUIT     0.005     0  04:14      1.05    0.03    0.12
  FID3672              CONDUIT     0.018     0  04:15      1.50    0.10    0.22
  FID3762              CONDUIT     0.035     0  04:15      0.70    0.09    0.47
  FID3765              CONDUIT     0.077     0  04:15      1.25    0.17    0.54
  FID4112              CONDUIT     0.092     0  04:05      1.67    0.13    0.24
  FID4186              CONDUIT     0.006     0  04:05      0.89    0.02    0.10
  FID4187              CONDUIT     0.006     0  04:05      1.40    0.01    0.08
  FID4201              CONDUIT     0.066     0  04:05      1.15    0.55    0.50
  FID4202              CONDUIT     0.066     0  04:05      1.39    0.39    0.43
  FID4203              CONDUIT     0.000     0  00:00      0.00    0.00    0.18
  FID4299              CONDUIT     0.003     0  04:05      0.84    0.01    0.07
  FID4372              CONDUIT     0.086     0  04:20      0.44    0.02    0.29
  FID4498              CONDUIT     0.006     0  04:10      0.63    0.02    0.53
  FID4806              CONDUIT     0.025     0  04:05      1.64    0.01    0.06
  FID4807              CONDUIT     0.001     0  04:05      0.64    0.00    0.05
  FID4882              CONDUIT     0.000     0  04:20      0.00    0.00    0.51
  FID4884              CONDUIT     0.033     0  04:10      1.75    0.01    0.07
  FID4914              CONDUIT     0.007     0  04:10      0.11    0.02    0.55
  FID4915              CONDUIT     0.001     0  04:10      0.21    0.03    0.13
  FID4916              CONDUIT     0.002     0  04:10      0.24    0.03    0.10
  FID4917              CONDUIT     0.002     0  04:10      0.70    0.00    0.37
  FID5307              CONDUIT     0.006     0  04:05      0.43    0.09    0.18
  FID5308              CONDUIT     0.002     0  04:05      1.02    0.01    0.07
  FID5312              CONDUIT     0.006     0  04:05      0.57    0.03    0.12
  FID5865              CONDUIT     0.301     0  04:20      4.05    0.11    0.22
  C9                   CHANNEL     0.661     0  00:01      0.53    0.12    0.56
  C12                  CHANNEL     0.657     0  04:35      0.35    0.48    0.68
  C13                  CHANNEL     0.662     0  04:36      0.47    0.48    0.68
  C14                  CHANNEL     0.444     0  04:37      0.47    0.32    0.68
  C52                  CONDUIT     0.089     0  04:05      0.74    0.11    0.46
  C130                 CONDUIT     0.016     0  04:05      0.52    0.25    0.25
  C131                 CONDUIT     0.016     0  04:05      1.55    0.03    0.21
  C139                 CONDUIT     0.001     0  04:06      0.08    0.01    0.25
  C191                 CHANNEL     0.453     0  04:30      0.36    0.33    0.72
  C193                 CHANNEL     0.464     0  04:35      0.28    0.34    0.80
  C194                 CHANNEL     0.469     0  04:35      0.23    0.34    0.84
  C195                 CHANNEL     0.471     0  04:35      0.27    0.15    0.67
  C196                 CONDUIT     0.450     0  04:30      0.34    0.54    0.76
  C197                 CONDUIT     0.509     0  04:17      0.19    0.40    0.95
  C198                 CHANNEL     0.539     0  04:15      0.22    0.18    0.57
  C199                 CHANNEL     0.537     0  04:15      0.23    3.89    0.66
  C200                 CHANNEL     0.536     0  04:15      0.26    3.51    0.63
  C201                 CHANNEL     0.534     0  04:16      0.23    0.26    0.52
  C202                 CHANNEL     0.533     0  04:15      0.24    0.26    0.52
  C203                 CHANNEL     0.535     0  04:29      0.24    0.26    0.53
  C204                 CHANNEL     0.538     0  04:28      0.35    0.26    0.53
  C205                 CONDUIT     0.583     0  04:20      0.23    0.67    0.65
  C206                 CHANNEL     0.647     0  04:05      0.28    0.32    0.53
  C207                 CHANNEL     0.618     0  04:05      0.26    0.30    0.53
  C208                 CHANNEL     0.596     0  04:21      0.25    0.29    0.52
  C209                 CHANNEL     0.593     0  04:23      0.26    0.29    0.51
  C210                 CHANNEL     0.594     0  04:24      0.31    0.30    0.59
  C211                 CHANNEL     0.596     0  04:24      0.32    0.36    0.53
  C212                 CONDUIT     0.682     0  04:05      0.27    0.66    0.64
  C213                 CHANNEL     0.673     0  04:05      0.36    0.40    0.53
  C214                 CHANNEL     0.662     0  04:05      0.39    0.40    0.52
  C215                 CONDUIT     0.642     0  04:24      0.24    0.62    0.66
  C216                 CONDUIT     0.641     0  04:26      0.31    0.79    0.55
  C217                 CONDUIT     0.645     0  04:25      0.26    0.43    0.42
  C218                 CHANNEL     0.702     0  04:20      0.32    0.42    0.59
  C219                 CHANNEL     0.695     0  04:20      0.32    0.42    0.59
  C220                 CHANNEL     0.687     0  04:23      0.32    0.41    0.57
  C221                 CHANNEL     0.688     0  04:25      0.34    0.41    0.54
  C222                 CONDUIT     0.705     0  04:23      0.32    0.79    0.62
  C223                 CHANNEL     0.747     0  04:20      0.51    0.16    0.55
  C224                 CHANNEL     0.734     0  04:21      0.31    0.79    0.83
  C225                 CHANNEL     0.721     0  04:31      0.31    0.78    0.81
  C226                 CHANNEL     0.716     0  04:32      0.40    0.77    0.79
  C227                 CONDUIT     0.705     0  04:36      0.24    0.95    0.84
  C228                 CHANNEL     0.700     0  04:39      0.39    0.48    0.66
  C229                 CONDUIT     0.704     0  04:39      0.19    0.21    0.49
  C230                 CHANNEL     0.703     0  04:39      0.41    0.48    0.69
  C231                 CHANNEL     0.702     0  04:42      0.38    0.48    0.69
  C232                 CHANNEL     0.699     0  04:45      0.40    0.47    0.69
  C233                 CHANNEL     0.696     0  04:50      0.39    0.47    0.67
  C234                 CONDUIT     0.695     0  04:53      0.29    0.48    0.51
  C235                 CHANNEL     0.696     0  04:53      0.40    0.47    0.66
  C236                 CHANNEL     0.722     0  04:50      0.39    0.57    0.73
  C237                 CHANNEL     0.721     0  04:51      0.39    0.57    0.73
  C238                 CHANNEL     0.722     0  04:52      0.39    0.57    0.73
  C239                 CHANNEL     0.721     0  04:54      0.39    0.57    0.73
  C240                 CHANNEL     0.721     0  04:54      0.45    0.56    0.73
  C241                 CHANNEL     0.721     0  04:54      0.51    0.57    0.73
  C242                 CONDUIT     0.721     0  04:55      0.35    0.42    0.59
  C243                 CHANNEL     0.721     0  04:58      0.41    0.57    0.69
  C244                 CHANNEL     0.718     0  05:02      0.56    0.20    0.40
  C245                 CONDUIT     0.717     0  05:02      0.34    0.33    0.52
  C246                 CHANNEL     0.720     0  05:06      0.32    0.38    0.60
  C247                 CHANNEL     0.717     0  05:11      0.33    0.38    0.59
  C248                 CHANNEL     0.716     0  05:13      0.36    0.38    0.55
  C249                 CHANNEL     0.716     0  05:15      2.53    0.48    0.56
  C250                 CONDUIT     0.715     0  05:15      0.39    0.44    0.45
  C251                 CONDUIT     0.715     0  05:16      0.39    0.44    0.45
  C252                 CHANNEL     0.718     0  05:16      4.25    0.48    0.53
  C253                 CHANNEL     0.717     0  05:17      0.54    0.27    0.52
  C254                 CHANNEL     0.716     0  05:19      1.85    0.27    0.55
  C255                 CHANNEL     0.715     0  05:20      0.33    0.27    0.59
  C256                 CHANNEL     0.714     0  05:22      0.80    0.27    0.64
  C257                 CHANNEL     0.713     0  05:22      2.05    0.27    0.66
  C258                 CONDUIT     0.713     0  05:23      0.32    0.43    0.56
  C259                 CHANNEL     0.712     0  05:24      0.29    0.27    0.72
  C260                 CHANNEL     0.712     0  05:25      0.25    0.27    0.76
  C261                 CHANNEL     0.712     0  05:25      1.91    0.27    0.78
  C262                 CHANNEL     0.712     0  05:26      0.19    0.27    0.84
  C263                 CHANNEL     0.711     0  05:28      0.25    0.27    0.58
  C264                 CONDUIT     0.711     0  05:29      0.27    0.61    0.62
  C265                 CHANNEL     0.737     0  04:30      0.32    0.28    0.51
  C266                 CHANNEL     0.733     0  04:30      0.37    0.24    0.55
  C267                 CHANNEL     0.727     0  04:31      0.36    0.24    0.55
  C268                 CHANNEL     0.725     0  05:29      0.35    0.24    0.55
  C269                 CHANNEL     0.725     0  05:30      0.35    0.24    0.55
  C270                 CHANNEL     0.725     0  05:31      0.35    0.24    0.55
  C271                 CHANNEL     0.724     0  05:32      0.36    0.24    0.55
  C272                 CHANNEL     0.724     0  05:32      0.36    0.24    0.55
  C273                 CHANNEL     0.744     0  04:34      0.38    0.24    0.54
  C274                 CHANNEL     0.741     0  04:36      0.38    0.24    0.53
  C275                 CHANNEL     0.739     0  04:37      0.39    0.24    0.52
  C276                 CHANNEL     0.738     0  04:39      0.41    0.24    0.51
  C277                 CHANNEL     0.738     0  04:40      0.43    0.24    0.49
  C278                 CHANNEL     0.738     0  04:40      0.45    0.24    0.47
  C279                 CHANNEL     0.738     0  04:41      0.52    0.24    0.43
  C280                 CHANNEL     0.738     0  04:41      0.39    0.42    0.58
  C281                 CHANNEL     0.749     0  04:37      0.40    0.42    0.58
  C282                 CHANNEL     0.748     0  04:38      0.40    0.42    0.58
  C283                 CHANNEL     0.751     0  04:37      0.41    0.42    0.57
  C284                 CHANNEL     0.751     0  04:38      0.41    0.42    0.56
  C285                 CHANNEL     0.750     0  04:39      0.42    0.42    0.55
  C286                 CHANNEL     0.750     0  04:40      0.50    0.30    0.54
  C287                 CHANNEL     0.749     0  04:41      0.50    0.30    0.54
  C288                 CHANNEL     0.749     0  04:42      0.50    0.30    0.54
  C289                 CHANNEL     0.748     0  04:43      0.50    0.30    0.54
  C290                 CHANNEL     0.748     0  04:43      0.50    0.30    0.55
  C291                 CHANNEL     0.748     0  04:44      0.50    0.30    0.55
  C292                 CHANNEL     0.763     0  04:44      0.50    0.31    0.55
  C293                 CHANNEL     0.762     0  04:45      0.50    0.31    0.55
  C294                 CHANNEL     0.762     0  04:45      0.50    0.31    0.55
  C295                 CHANNEL     0.762     0  04:45      0.50    0.31    0.55
  C296                 CHANNEL     0.762     0  04:46      0.50    0.31    0.55
  C297                 CHANNEL     0.761     0  04:46      0.50    0.31    0.55
  C298                 CHANNEL     0.761     0  04:47      0.49    0.31    0.56
  C299                 CHANNEL     0.761     0  04:47      0.48    0.31    0.57
  C300                 CHANNEL     0.761     0  04:48      0.46    0.31    0.59
  C301                 CHANNEL     0.760     0  04:48      0.80    0.23    0.35
  C302                 CHANNEL     0.658     0  04:15      0.46    0.17    0.51
  C303                 CHANNEL     0.457     0  04:35      0.32    0.33    0.75
  C353                 CONDUIT     0.027     0  04:15      1.60    0.01    0.06
  
  
  ***************************
  Flow Classification Summary
  ***************************
  
  -------------------------------------------------------------------------------------
                      Adjusted    ---------- Fraction of Time in Flow Class ---------- 
                       /Actual         Up    Down  Sub   Sup   Up    Down  Norm  Inlet 
  Conduit               Length    Dry  Dry   Dry   Crit  Crit  Crit  Crit  Ltd   Ctrl  
  -------------------------------------------------------------------------------------
  FID1123                 1.00   0.16  0.00  0.00  0.43  0.00  0.00  0.41  0.31  0.00
  FID1139                 1.00   0.12  0.00  0.00  0.00  0.00  0.00  0.88  0.00  0.00
  FID1148                 1.00   0.11  0.00  0.00  0.60  0.00  0.00  0.29  0.00  0.00
  FID1149                 1.00   0.12  0.00  0.00  0.69  0.02  0.00  0.17  0.54  0.00
  FID3364                 1.00   0.11  0.00  0.00  0.79  0.00  0.00  0.10  0.60  0.00
  FID3671                 1.00   0.18  0.00  0.00  0.00  0.00  0.00  0.82  0.00  0.00
  FID3672                 1.00   0.15  0.00  0.00  0.00  0.00  0.00  0.85  0.00  0.00
  FID3762                 1.00   0.02  0.12  0.00  0.87  0.00  0.00  0.00  0.67  0.00
  FID3765                 1.00   0.02  0.11  0.00  0.85  0.02  0.00  0.00  0.67  0.00
  FID4112                 1.00   0.12  0.00  0.00  0.00  0.00  0.00  0.88  0.00  0.00
  FID4186                 1.00   0.18  0.00  0.00  0.35  0.24  0.00  0.23  0.05  0.00
  FID4187                 1.00   0.20  0.00  0.00  0.00  0.00  0.00  0.80  0.00  0.00
  FID4201                 1.00   0.13  0.00  0.00  0.72  0.00  0.00  0.15  0.47  0.00
  FID4202                 1.00   0.15  0.00  0.00  0.00  0.00  0.00  0.85  0.00  0.00
  FID4203                 1.00   0.13  0.87  0.00  0.00  0.00  0.00  0.00  0.00  0.00
  FID4299                 1.00   0.19  0.00  0.00  0.00  0.00  0.00  0.81  0.00  0.00
  FID4372                 1.00   0.10  0.02  0.00  0.87  0.00  0.00  0.00  0.67  0.00
  FID4498                 1.00   0.11  0.00  0.00  0.76  0.00  0.00  0.13  0.58  0.00
  FID4806                 1.00   0.13  0.00  0.00  0.00  0.00  0.00  0.87  0.00  0.00
  FID4807                 1.00   0.25  0.00  0.00  0.00  0.00  0.00  0.75  0.00  0.00
  FID4882                 1.00   0.26  0.59  0.00  0.14  0.00  0.00  0.00  0.52  0.00
  FID4884                 1.00   0.12  0.00  0.00  0.18  0.06  0.00  0.65  0.17  0.00
  FID4914                 1.00   0.17  0.00  0.00  0.82  0.00  0.00  0.00  0.63  0.00
  FID4915                 1.00   0.23  0.00  0.00  0.74  0.00  0.00  0.03  0.52  0.00
  FID4916                 1.00   0.26  0.00  0.00  0.51  0.00  0.00  0.23  0.00  0.00
  FID4917                 1.00   0.27  0.13  0.00  0.59  0.00  0.00  0.01  0.55  0.00
  FID5307                 1.00   0.18  0.00  0.00  0.74  0.00  0.00  0.08  0.47  0.00
  FID5308                 1.00   0.20  0.00  0.00  0.00  0.00  0.00  0.80  0.00  0.00
  FID5312                 1.00   0.20  0.00  0.00  0.00  0.00  0.00  0.80  0.00  0.00
  FID5865                 1.00   0.10  0.00  0.00  0.39  0.16  0.00  0.35  0.41  0.00
  C9                      1.00   0.00  0.00  0.00  1.00  0.00  0.00  0.00  0.00  0.00
  C12                     1.00   0.00  0.00  0.00  1.00  0.00  0.00  0.00  0.00  0.00
  C13                     1.00   0.00  0.00  0.00  1.00  0.00  0.00  0.00  0.00  0.00
  C14                     1.00   0.00  0.00  0.00  1.00  0.00  0.00  0.00  0.00  0.00
  C52                     1.00   0.05  0.07  0.00  0.87  0.00  0.00  0.00  0.67  0.00
  C130                    1.00   0.18  0.00  0.00  0.63  0.00  0.00  0.19  0.00  0.00
  C131                    1.00   0.21  0.00  0.00  0.68  0.01  0.00  0.09  0.53  0.00
  C139                    1.00   0.11  0.67  0.00  0.21  0.00  0.01  0.00  0.51  0.00
  C191                    1.00   0.00  0.00  0.00  1.00  0.00  0.00  0.00  0.00  0.00
  C193                    1.00   0.01  0.00  0.00  0.99  0.00  0.00  0.00  0.00  0.00
  C194                    1.00   0.01  0.00  0.00  0.99  0.00  0.00  0.00  0.00  0.00
  C195                    1.00   0.01  0.00  0.00  0.99  0.00  0.00  0.00  0.00  0.00
  C196                    1.00   0.00  0.00  0.00  1.00  0.00  0.00  0.00  0.00  0.00
  C197                    1.00   0.01  0.00  0.00  0.99  0.00  0.00  0.00  0.00  0.00
  C198                    1.00   0.01  0.00  0.00  0.99  0.00  0.00  0.00  0.00  0.00
  C199                    1.00   0.01  0.00  0.00  0.99  0.00  0.00  0.00  0.00  0.00
  C200                    1.00   0.01  0.00  0.00  0.99  0.00  0.00  0.00  0.00  0.00
  C201                    1.00   0.01  0.00  0.00  0.99  0.00  0.00  0.00  0.00  0.00
  C202                    1.00   0.02  0.00  0.00  0.98  0.00  0.00  0.00  0.00  0.00
  C203                    1.00   0.02  0.00  0.00  0.98  0.00  0.00  0.00  0.00  0.00
  C204                    1.00   0.02  0.00  0.00  0.98  0.00  0.00  0.00  0.00  0.00
  C205                    1.00   0.02  0.00  0.00  0.98  0.00  0.00  0.00  0.00  0.00
  C206                    1.00   0.02  0.00  0.00  0.98  0.00  0.00  0.00  0.00  0.00
  C207                    1.00   0.02  0.00  0.00  0.98  0.00  0.00  0.00  0.00  0.00
  C208                    1.00   0.03  0.00  0.00  0.97  0.00  0.00  0.00  0.00  0.00
  C209                    1.00   0.03  0.00  0.00  0.97  0.00  0.00  0.00  0.00  0.00
  C210                    1.00   0.03  0.00  0.00  0.97  0.00  0.00  0.00  0.00  0.00
  C211                    1.00   0.03  0.00  0.00  0.97  0.00  0.00  0.00  0.00  0.00
  C212                    1.00   0.03  0.00  0.00  0.97  0.00  0.00  0.00  0.00  0.00
  C213                    1.00   0.03  0.00  0.00  0.97  0.00  0.00  0.00  0.00  0.00
  C214                    1.00   0.04  0.00  0.00  0.96  0.00  0.00  0.00  0.00  0.00
  C215                    1.00   0.04  0.00  0.00  0.96  0.00  0.00  0.00  0.03  0.00
  C216                    1.00   0.04  0.00  0.00  0.96  0.00  0.00  0.00  0.00  0.00
  C217                    1.00   0.04  0.00  0.00  0.96  0.00  0.00  0.00  0.00  0.00
  C218                    1.00   0.04  0.00  0.00  0.96  0.00  0.00  0.00  0.00  0.00
  C219                    1.00   0.05  0.00  0.00  0.95  0.00  0.00  0.00  0.00  0.00
  C220                    1.00   0.05  0.00  0.00  0.95  0.00  0.00  0.00  0.00  0.00
  C221                    1.00   0.05  0.00  0.00  0.95  0.00  0.00  0.00  0.00  0.00
  C222                    1.00   0.06  0.00  0.00  0.94  0.00  0.00  0.00  0.00  0.00
  C223                    1.00   0.06  0.00  0.00  0.94  0.00  0.00  0.00  0.01  0.00
  C224                    1.00   0.06  0.00  0.00  0.94  0.00  0.00  0.00  0.00  0.00
  C225                    1.00   0.06  0.00  0.00  0.94  0.00  0.00  0.00  0.00  0.00
  C226                    1.00   0.07  0.00  0.00  0.93  0.00  0.00  0.00  0.00  0.00
  C227                    1.00   0.07  0.00  0.00  0.93  0.00  0.00  0.00  0.00  0.00
  C228                    1.00   0.07  0.00  0.00  0.93  0.00  0.00  0.00  0.00  0.00
  C229                    1.00   0.08  0.00  0.00  0.92  0.00  0.00  0.00  0.00  0.00
  C230                    1.00   0.08  0.00  0.00  0.92  0.00  0.00  0.00  0.00  0.00
  C231                    1.00   0.08  0.00  0.00  0.92  0.00  0.00  0.00  0.00  0.00
  C232                    1.00   0.09  0.00  0.00  0.91  0.00  0.00  0.00  0.00  0.00
  C233                    1.00   0.09  0.00  0.00  0.91  0.00  0.00  0.00  0.00  0.00
  C234                    1.00   0.09  0.00  0.00  0.91  0.00  0.00  0.00  0.00  0.00
  C235                    1.00   0.09  0.00  0.00  0.91  0.00  0.00  0.00  0.00  0.00
  C236                    1.00   0.10  0.00  0.00  0.90  0.00  0.00  0.00  0.00  0.00
  C237                    1.00   0.10  0.00  0.00  0.90  0.00  0.00  0.00  0.00  0.00
  C238                    1.00   0.10  0.00  0.00  0.90  0.00  0.00  0.00  0.00  0.00
  C239                    1.00   0.10  0.00  0.00  0.90  0.00  0.00  0.00  0.00  0.00
  C240                    1.00   0.11  0.00  0.00  0.89  0.00  0.00  0.00  0.00  0.00
  C241                    1.00   0.11  0.00  0.00  0.89  0.00  0.00  0.00  0.04  0.00
  C242                    1.00   0.11  0.00  0.00  0.89  0.00  0.00  0.00  0.00  0.00
  C243                    1.00   0.11  0.00  0.00  0.89  0.00  0.00  0.00  0.00  0.00
  C244                    1.00   0.11  0.00  0.00  0.88  0.00  0.00  0.00  0.00  0.00
  C245                    1.00   0.12  0.00  0.00  0.88  0.00  0.00  0.00  0.00  0.00
  C246                    1.00   0.10  0.03  0.00  0.87  0.00  0.00  0.00  0.00  0.00
  C247                    1.00   0.10  0.00  0.00  0.90  0.00  0.00  0.00  0.00  0.00
  C248                    1.00   0.15  0.00  0.00  0.85  0.00  0.00  0.00  0.00  0.00
  C249                    1.00   0.10  0.07  0.00  0.83  0.00  0.00  0.00  0.01  0.00
  C250                    1.00   0.10  0.00  0.00  0.90  0.00  0.00  0.00  0.01  0.00
  C251                    1.00   0.10  0.00  0.00  0.90  0.00  0.00  0.00  0.07  0.00
  C252                    1.00   0.11  0.00  0.00  0.88  0.01  0.00  0.00  0.00  0.00
  C253                    1.00   0.11  0.00  0.00  0.89  0.00  0.00  0.00  0.00  0.00
  C254                    1.00   0.16  0.00  0.00  0.84  0.00  0.00  0.00  0.00  0.00
  C255                    1.00   0.11  0.10  0.00  0.79  0.00  0.00  0.00  0.01  0.00
  C256                    1.00   0.10  0.01  0.00  0.89  0.00  0.00  0.00  0.03  0.00
  C257                    1.00   0.10  0.00  0.00  0.89  0.01  0.00  0.00  0.00  0.00
  C258                    1.00   0.10  0.03  0.00  0.87  0.00  0.00  0.00  0.02  0.00
  C259                    1.00   0.10  0.00  0.00  0.90  0.00  0.00  0.00  0.06  0.00
  C260                    1.00   0.12  0.02  0.00  0.86  0.00  0.00  0.00  0.00  0.00
  C261                    1.00   0.12  0.00  0.00  0.88  0.00  0.00  0.00  0.00  0.00
  C262                    1.00   0.11  0.02  0.00  0.87  0.00  0.00  0.00  0.05  0.00
  C263                    1.00   0.11  0.00  0.00  0.89  0.00  0.00  0.00  0.00  0.00
  C264                    1.00   0.10  0.00  0.00  0.90  0.00  0.00  0.00  0.00  0.00
  C265                    1.00   0.10  0.00  0.00  0.89  0.00  0.00  0.00  0.00  0.00
  C266                    1.00   0.11  0.00  0.00  0.89  0.00  0.00  0.00  0.00  0.00
  C267                    1.00   0.14  0.00  0.00  0.86  0.00  0.00  0.00  0.00  0.00
  C268                    1.00   0.16  0.01  0.00  0.83  0.00  0.00  0.00  0.02  0.00
  C269                    1.00   0.16  0.00  0.00  0.84  0.00  0.00  0.00  0.00  0.00
  C270                    1.00   0.17  0.02  0.00  0.81  0.00  0.00  0.00  0.02  0.00
  C271                    1.00   0.13  0.04  0.00  0.83  0.00  0.00  0.00  0.00  0.00
  C272                    1.00   0.12  0.02  0.00  0.87  0.00  0.00  0.00  0.00  0.00
  C273                    1.00   0.12  0.00  0.00  0.88  0.00  0.00  0.00  0.00  0.00
  C274                    1.00   0.13  0.00  0.00  0.87  0.00  0.00  0.00  0.00  0.00
  C275                    1.00   0.16  0.00  0.00  0.84  0.00  0.00  0.00  0.00  0.00
  C276                    1.00   0.21  0.00  0.00  0.79  0.00  0.00  0.00  0.00  0.00
  C277                    1.00   0.23  0.00  0.00  0.77  0.00  0.00  0.00  0.00  0.00
  C278                    1.00   0.24  0.00  0.00  0.76  0.00  0.00  0.00  0.00  0.00
  C279                    1.00   0.18  0.07  0.00  0.75  0.00  0.00  0.00  0.00  0.00
  C280                    1.00   0.12  0.06  0.00  0.82  0.00  0.00  0.00  0.03  0.00
  C281                    1.00   0.12  0.00  0.00  0.88  0.00  0.00  0.00  0.03  0.00
  C282                    1.00   0.13  0.00  0.00  0.87  0.00  0.00  0.00  0.03  0.00
  C283                    1.00   0.15  0.00  0.00  0.85  0.00  0.00  0.00  0.02  0.00
  C284                    1.00   0.19  0.00  0.00  0.81  0.00  0.00  0.00  0.01  0.00
  C285                    1.00   0.21  0.00  0.00  0.79  0.00  0.00  0.00  0.00  0.00
  C286                    1.00   0.23  0.00  0.00  0.77  0.00  0.00  0.00  0.00  0.00
  C287                    1.00   0.17  0.08  0.00  0.75  0.00  0.00  0.00  0.00  0.00
  C288                    1.00   0.17  0.00  0.00  0.83  0.00  0.00  0.00  0.00  0.00
  C289                    1.00   0.28  0.00  0.00  0.72  0.00  0.00  0.00  0.00  0.00
  C290                    1.00   0.11  0.18  0.00  0.71  0.00  0.00  0.00  0.00  0.00
  C291                    1.00   0.11  0.00  0.00  0.89  0.00  0.00  0.00  0.12  0.00
  C292                    1.00   0.14  0.00  0.00  0.86  0.00  0.00  0.00  0.03  0.00
  C293                    1.00   0.15  0.00  0.00  0.85  0.00  0.00  0.00  0.03  0.00
  C294                    1.00   0.18  0.00  0.00  0.82  0.00  0.00  0.00  0.03  0.00
  C295                    1.00   0.21  0.00  0.00  0.79  0.00  0.00  0.00  0.02  0.00
  C296                    1.00   0.20  0.03  0.00  0.77  0.00  0.00  0.00  0.02  0.00
  C297                    1.00   0.20  0.00  0.00  0.80  0.00  0.00  0.00  0.01  0.00
  C298                    1.00   0.26  0.00  0.00  0.74  0.00  0.00  0.00  0.01  0.00
  C299                    1.00   0.27  0.00  0.00  0.73  0.00  0.00  0.00  0.00  0.00
  C300                    1.00   0.28  0.00  0.00  0.72  0.00  0.00  0.00  0.00  0.00
  C301                    1.00   0.29  0.00  0.00  0.71  0.00  0.00  0.00  0.00  0.00
  C302                    1.00   0.00  0.00  0.00  1.00  0.00  0.00  0.00  0.00  0.00
  C303                    1.00   0.00  0.00  0.00  1.00  0.00  0.00  0.00  0.00  0.00
  C353                    1.00   0.14  0.00  0.00  0.00  0.00  0.00  0.86  0.00  0.00
  
  
  *************************
  Conduit Surcharge Summary
  *************************
  
  ----------------------------------------------------------------------------
                                                           Hours        Hours 
                         --------- Hours Full --------   Above Full   Capacity
  Conduit                Both Ends  Upstream  Dnstream   Normal Flow   Limited
  ----------------------------------------------------------------------------
  FID4498                     0.01      0.01      1.56      0.01         0.01
  FID4882                     0.01      0.01      2.75      0.01         0.01
  FID4914                     0.01      0.01      5.36      0.01         0.01
  C199                        0.01      0.01      0.01      8.49         0.01
  C200                        0.01      0.01      0.01      8.44         0.01
  
  
  ***************************
  Link Pollutant Load Summary
  ***************************
  
  --------------------------------------------------------------
                                 TSS            TP           TDP
  Link                            kg            kg            kg
  --------------------------------------------------------------
  FID1123                     37.728         0.023         0.034
  FID1139                    246.957         0.138         0.176
  FID1148                    491.351         0.209         0.314
  FID1149                    490.347         0.209         0.314
  FID3364                    620.999         0.236         0.375
  FID3671                     45.857         0.004         0.023
  FID3672                    133.570         0.043         0.063
  FID3762                    456.201         0.072         0.227
  FID3765                    713.877         0.145         0.359
  FID4112                    225.092         0.072         0.120
  FID4186                     77.100         0.006         0.042
  FID4187                     75.660         0.006         0.041
  FID4201                    148.462         0.041         0.074
  FID4202                    141.991         0.038         0.068
  FID4203                      0.000         0.000         0.000
  FID4299                     27.103         0.004         0.013
  FID4372                   2039.589         0.307         0.482
  FID4498                      3.490         0.010         0.011
  FID4806                    695.584         0.048         0.288
  FID4807                      0.000         0.001         0.000
  FID4882                      0.000         0.000         0.000
  FID4884                    156.955         0.102         0.142
  FID4914                    116.641         0.017         0.055
  FID4915                      5.138         0.003         0.002
  FID4916                      0.332         0.000         0.000
  FID4917                      0.073         0.000         0.000
  FID5307                     48.850         0.027         0.035
  FID5308                     22.795         0.005         0.010
  FID5312                     47.594         0.026         0.034
  FID5865                    734.653         0.224         0.323
  C9                         304.089         1.047         1.373
  C12                        303.054         1.026         1.347
  C13                        381.460         1.033         1.364
  C14                        250.299         0.679         0.900
  C52                        883.886         0.258         0.460
  C130                        49.548         0.046         0.060
  C131                        47.582         0.045         0.058
  C139                         0.001         0.001         0.001
  C191                       429.643         0.717         0.974
  C193                       430.638         0.693         0.944
  C194                       427.493         0.687         0.939
  C195                       426.975         0.684         0.936
  C196                       383.975         0.718         0.957
  C197                      1141.285         0.826         1.291
  C198                      1597.328         0.894         1.515
  C199                      1602.349         0.890         1.511
  C200                      1599.784         0.886         1.505
  C201                      1604.017         0.880         1.498
  C202                      1640.707         0.877         1.499
  C203                      1642.024         0.873         1.495
  C204                      1634.316         0.870         1.490
  C205                      2024.874         1.038         1.714
  C206                      2248.211         1.107         1.829
  C207                      2259.754         1.104         1.826
  C208                      2329.845         1.102         1.856
  C209                      2318.757         1.096         1.849
  C210                      2318.771         1.094         1.846
  C211                      2317.307         1.092         1.843
  C212                      3041.403         1.273         2.217
  C213                      3050.848         1.273         2.217
  C214                      3052.218         1.271         2.214
  C215                      3281.092         1.280         2.306
  C216                      3238.089         1.260         2.282
  C217                      3380.966         1.296         2.346
  C218                      4262.486         1.550         2.801
  C219                      4269.675         1.547         2.798
  C220                      4275.277         1.543         2.792
  C221                      4403.559         1.547         2.853
  C222                      4758.880         1.659         3.028
  C223                      5154.169         1.839         3.264
  C224                      5185.845         1.841         3.268
  C225                      5243.257         1.836         3.270
  C226                      5242.692         1.830         3.263
  C227                      5399.474         1.831         3.302
  C228                      5499.264         1.823         3.359
  C229                      6153.910         1.969         3.729
  C230                      6179.231         1.971         3.739
  C231                      6199.981         1.969         3.735
  C232                      6190.314         1.961         3.721
  C233                      6293.377         1.958         3.741
  C234                      6288.259         1.953         3.738
  C235                      6329.486         1.966         3.754
  C236                      8366.907         2.272         4.235
  C237                      8384.340         2.272         4.231
  C238                      9058.119         2.452         4.580
  C239                      9044.787         2.447         4.572
  C240                      9034.818         2.444         4.569
  C241                      9057.047         2.449         4.578
  C242                      9111.381         2.475         4.611
  C243                      9239.581         2.479         4.641
  C244                      9291.270         2.474         4.687
  C245                      9292.752         2.473         4.684
  C246                     1.030e+04         2.518         4.967
  C247                     1.023e+04         2.522         5.014
  C248                     1.026e+04         2.516         5.005
  C249                     1.019e+04         2.512         4.997
  C250                     1.020e+04         2.516         5.003
  C251                     1.020e+04         2.518         5.001
  C252                     1.082e+04         2.749         5.374
  C253                     1.086e+04         2.747         5.371
  C254                     1.088e+04         2.741         5.366
  C255                     1.086e+04         2.736         5.359
  C256                     1.084e+04         2.740         5.361
  C257                     1.085e+04         2.739         5.368
  C258                     1.085e+04         2.739         5.366
  C259                     1.094e+04         2.748         5.369
  C260                     1.097e+04         2.756         5.363
  C261                     1.123e+04         2.864         5.509
  C262                     1.167e+04         2.923         5.543
  C263                     1.181e+04         2.945         5.558
  C264                     1.191e+04         2.981         5.586
  C265                     1.166e+04         3.021         5.786
  C266                     1.172e+04         3.025         5.789
  C267                     1.170e+04         3.020         5.782
  C268                     1.172e+04         3.023         5.784
  C269                     1.165e+04         3.028         5.795
  C270                     1.169e+04         3.034         5.802
  C271                     1.164e+04         3.026         5.788
  C272                     1.163e+04         3.025         5.784
  C273                     1.218e+04         3.249         6.124
  C274                     1.216e+04         3.239         6.110
  C275                     1.213e+04         3.230         6.098
  C276                     1.212e+04         3.225         6.091
  C277                     1.209e+04         3.217         6.080
  C278                     1.208e+04         3.214         6.075
  C279                     1.209e+04         3.214         6.076
  C280                     1.206e+04         3.208         6.064
  C281                     1.229e+04         3.339         6.232
  C282                     1.231e+04         3.346         6.242
  C283                     1.236e+04         3.388         6.297
  C284                     1.237e+04         3.392         6.303
  C285                     1.240e+04         3.403         6.317
  C286                     1.240e+04         3.407         6.326
  C287                     1.240e+04         3.404         6.323
  C288                     1.236e+04         3.390         6.304
  C289                     1.234e+04         3.381         6.292
  C290                     1.233e+04         3.377         6.285
  C291                     1.232e+04         3.360         6.263
  C292                     1.261e+04         3.525         6.489
  C293                     1.254e+04         3.506         6.458
  C294                     1.252e+04         3.503         6.451
  C295                     1.244e+04         3.475         6.408
  C296                     1.243e+04         3.476         6.409
  C297                     1.244e+04         3.483         6.419
  C298                     1.243e+04         3.478         6.411
  C299                     1.239e+04         3.459         6.384
  C300                     1.242e+04         3.474         6.409
  C301                     1.234e+04         3.435         6.354
  C302                       303.423         1.041         1.366
  C303                       430.636         0.707         0.962
  C353                       277.353         0.144         0.197
  

  Analysis begun on:  Tue Oct 10 16:55:30 2017
  Analysis ended on:  Tue Oct 10 16:55:43 2017
  Total elapsed time: 00:00:13