
  EPA STORM WATER MANAGEMENT MODEL - VERSION 5.1 (Build 5.1.010)
  --------------------------------------------------------------

  WARNING 04: minimum elevation drop used for Conduit C199
  WARNING 04: minimum elevation drop used for Conduit C200
  WARNING 02: maximum depth increased for Node FID1955
  WARNING 02: maximum depth increased for Node FID1960
  WARNING 02: maximum depth increased for Node FID1965
  WARNING 02: maximum depth increased for Node FID1968
  WARNING 02: maximum depth increased for Node FID2244
  WARNING 02: maximum depth increased for Node FID2442
  WARNING 02: maximum depth increased for Node FID2446
  WARNING 02: maximum depth increased for Node FID5504
  WARNING 02: maximum depth increased for Node FID5527
  WARNING 02: maximum depth increased for Node AFID6926
  WARNING 02: maximum depth increased for Node AFID7376
  
  *********************************************************
  NOTE: The summary statistics displayed in this report are
  based on results found at every computational time step,  
  not just on results from each reporting time step.
  *********************************************************
  
  ****************
  Analysis Options
  ****************
  Flow Units ............... CMS
  Process Models:
    Rainfall/Runoff ........ YES
    RDII ................... NO
    Snowmelt ............... NO
    Groundwater ............ NO
    Flow Routing ........... YES
    Ponding Allowed ........ YES
    Water Quality .......... YES
  Infiltration Method ...... GREEN_AMPT
  Flow Routing Method ...... DYNWAVE
  Starting Date ............ MAY-06-2016 15:00:00
  Ending Date .............. MAY-07-2016 00:00:00
  Antecedent Dry Days ...... 0.0
  Report Time Step ......... 00:01:00
  Wet Time Step ............ 00:01:00
  Dry Time Step ............ 01:00:00
  Routing Time Step ........ 5.00 sec
  Variable Time Step ....... YES
  Maximum Trials ........... 8
  Number of Threads ........ 3
  Head Tolerance ........... 0.001500 m
  
  
  **************************        Volume         Depth
  Runoff Quantity Continuity     hectare-m            mm
  **************************     ---------       -------
  Total Precipitation ......         2.583         6.709
  Evaporation Loss .........         0.000         0.000
  Infiltration Loss ........         1.307         3.395
  Surface Runoff ...........         0.914         2.373
  Final Storage ............         0.363         0.943
  Continuity Error (%) .....        -0.033
  
  
  **************************           TSS            TP           TDP
  Runoff Quality Continuity             kg            kg            kg
  **************************    ----------    ----------    ----------
  Initial Buildup ..........         0.000         0.000         0.000
  Surface Buildup ..........     10058.411         5.445         9.598
  Wet Deposition ...........         0.000         0.000         0.000
  Sweeping Removal .........         0.000         0.000         0.000
  Infiltration Loss ........         0.000         0.000         0.000
  BMP Removal ..............         0.579         0.000         0.001
  Surface Runoff ...........      5784.858         2.793         5.269
  Remaining Buildup ........      4272.974         2.652         4.329
  Continuity Error (%) .....         0.000         0.000         0.000
  
  
  **************************        Volume        Volume
  Flow Routing Continuity        hectare-m      10^6 ltr
  **************************     ---------     ---------
  Dry Weather Inflow .......         0.000         0.000
  Wet Weather Inflow .......         0.914         9.137
  Groundwater Inflow .......         0.000         0.000
  RDII Inflow ..............         0.000         0.000
  External Inflow ..........         1.384        13.843
  External Outflow .........         1.767        17.674
  Flooding Loss ............         0.000         0.000
  Evaporation Loss .........         0.000         0.000
  Exfiltration Loss ........         0.000         0.000
  Initial Stored Volume ....         0.000         0.000
  Final Stored Volume ......         0.536         5.361
  Continuity Error (%) .....        -0.242
  
  
  **************************           TSS            TP           TDP
  Quality Routing Continuity            kg            kg            kg
  **************************    ----------    ----------    ----------
  Dry Weather Inflow .......         0.000         0.000         0.000
  Wet Weather Inflow .......      5784.762         2.790         5.266
  Groundwater Inflow .......         0.000         0.000         0.000
  RDII Inflow ..............         0.000         0.000         0.000
  External Inflow ..........       137.985         1.039         1.284
  External Outflow .........      5774.108         3.486         6.095
  Flooding Loss ............         0.000         0.000         0.000
  Exfiltration Loss ........         0.000         0.000         0.000
  Mass Reacted .............         0.000         0.000         0.000
  Initial Stored Mass ......         0.000         0.000         0.000
  Final Stored Mass ........        39.414         0.351         0.495
  Continuity Error (%) .....         1.844        -0.228        -0.610
  
  
  *************************
  Highest Continuity Errors
  *************************
  Node FID2824 (1.75%)
  Node FID2827 (1.65%)
  Node J72 (1.34%)
  Node FID2449 (1.24%)
  Node J81 (1.21%)
  
  
  ***************************
  Time-Step Critical Elements
  ***************************
  Link C241 (92.61%)
  Link C14 (6.55%)
  
  
  ********************************
  Highest Flow Instability Indexes
  ********************************
  All links are stable.
  
  
  *************************
  Routing Time Step Summary
  *************************
  Minimum Time Step           :     0.17 sec
  Average Time Step           :     0.93 sec
  Maximum Time Step           :     5.00 sec
  Percent in Steady State     :     0.00
  Average Iterations per Step :     2.00
  Percent Not Converging      :     0.00
  
  
  ***************************
  Subcatchment Runoff Summary
  ***************************
  
  --------------------------------------------------------------------------------------------------------
                            Total      Total      Total      Total      Total       Total     Peak  Runoff
                           Precip      Runon       Evap      Infil     Runoff      Runoff   Runoff   Coeff
  Subcatchment                 mm         mm         mm         mm         mm    10^6 ltr      CMS
  --------------------------------------------------------------------------------------------------------
  S0                         5.84       0.00       0.00       5.06       0.57        0.00     0.00   0.097
  S1                         5.84       0.00       0.00       2.64       2.31        0.23     0.07   0.395
  S2                         6.35       0.00       0.00       2.00       3.23        0.56     0.18   0.508
  S3                         5.84       0.00       0.00       3.85       1.45        0.05     0.04   0.248
  S4                         5.84       0.00       0.00       2.84       2.18        0.22     0.14   0.373
  S6                         6.35       0.00       0.00       1.11       3.89        0.07     0.02   0.613
  S7                         6.35       0.00       0.00       1.45       2.82        1.10     0.39   0.445
  S8                         6.35       0.00       0.00       1.11       3.91        0.00     0.00   0.616
  S9                         6.35       0.00       0.00       1.82       3.38        0.00     0.00   0.533
  S10                        6.35       0.00       0.00       1.94       3.30        0.01     0.00   0.520
  S11                        6.35       0.00       0.00       5.01       1.00        0.00     0.00   0.158
  S12                        6.35       0.00       0.00       2.16       3.13        0.00     0.00   0.493
  S13                        6.35       0.00       0.00       2.41       2.93        0.22     0.07   0.461
  S14                        6.35       0.00       0.00       4.47       1.40        0.01     0.00   0.221
  S16                        6.35       0.00       0.00       1.08       0.87        0.05     0.01   0.137
  S17                        6.35       0.00       0.00       2.11       3.14        0.60     0.19   0.495
  S18                        6.35       0.00       0.00       1.46       3.66        0.00     0.00   0.576
  S19                        6.35       0.00       0.00       3.50       2.12        0.05     0.02   0.334
  S20                        6.35       0.00       0.00       2.27       3.05        0.02     0.01   0.481
  S21                        6.35       0.00       0.00       4.50       1.63        0.88     0.21   0.257
  S22                        6.35       0.00       0.00       1.76       3.43        0.00     0.00   0.540
  S23                        6.35       0.00       0.00       3.86       1.86        0.03     0.01   0.293
  S24                        6.35       0.00       0.00       3.65       2.01        0.04     0.01   0.317
  S25                        6.35       0.00       0.00       2.48       2.88        0.04     0.01   0.454
  S27                        6.35       0.00       0.00       2.82       2.64        0.01     0.01   0.415
  S28                        5.84       0.00       0.00       5.83       0.01        0.00     0.00   0.001
  S29                        5.84       0.00       0.00       5.80       0.03        0.00     0.00   0.005
  S30                        6.35       0.00       0.00       6.33       0.02        0.00     0.00   0.003
  S31                        6.35       0.00       0.00       6.34       0.01        0.00     0.00   0.001
  S32                        6.35       0.00       0.00       4.70       1.24        0.01     0.00   0.195
  S33                        6.35       0.00       0.00       1.59       3.56        0.04     0.01   0.560
  S34                        6.35       0.00       0.00       4.51       0.88        0.31     0.11   0.139
  S35                        6.35       0.00       0.00       3.63       2.03        0.01     0.00   0.320
  S36                        6.35       0.00       0.00       5.07       0.96        0.01     0.01   0.152
  S37                        6.35       0.00       0.00       1.90       3.32        0.02     0.01   0.523
  S39                        6.35       0.00       0.00       3.78       1.92        0.28     0.09   0.302
  S40                        6.35       0.00       0.00       4.44       1.42        0.03     0.01   0.224
  S41                        6.35       0.00       0.00       2.24       3.06        0.42     0.14   0.482
  S42                        6.35       0.00       0.00       2.63       2.77        0.28     0.09   0.436
  S43                        6.35       0.00       0.00       4.76       1.19        0.02     0.01   0.187
  S44                        6.35       0.00       0.00       2.70       2.71        0.61     0.19   0.427
  S45                        8.13       0.00       0.00       4.58       2.88        0.00     0.00   0.354
  S47                        8.13       0.00       0.00       3.51       3.72        0.16     0.13   0.458
  S48                        8.13       0.00       0.00       4.16       3.22        0.01     0.01   0.397
  S49                        8.13       0.00       0.00       3.67       3.57        0.67     0.37   0.440
  S51                        8.13       0.00       0.00       6.99       0.93        0.01     0.01   0.114
  S52                        8.13       0.00       0.00       3.98       3.34        0.22     0.17   0.411
  S53                        8.13       0.00       0.00       3.83       3.44        0.48     0.29   0.424
  S54                        8.13       0.00       0.00       4.88       2.60        0.25     0.07   0.320
  S55                        8.13       0.00       0.00       4.00       3.31        0.54     0.16   0.407
  S56                        8.13       0.00       0.00       5.90       1.79        0.00     0.00   0.221
  S57                        8.13       0.00       0.00       3.47       3.74        0.04     0.01   0.460
  S58                        8.13       0.00       0.00       4.33       3.04        0.12     0.04   0.375
  S59                        8.13       0.00       0.00       7.00       0.90        0.02     0.01   0.111
  S60                        8.13       0.00       0.00       5.80       1.87        0.05     0.01   0.229
  S61                        8.13       0.00       0.00       7.16       0.78        0.01     0.00   0.096
  S62                        8.13       0.00       0.00       6.67       1.17        0.03     0.02   0.144
  S63                        6.35       0.00       0.00       5.35       0.75        0.01     0.01   0.118
  S64                        6.35       0.00       0.00       2.90       2.59        0.04     0.02   0.407
  S65                        6.35       0.00       0.00       4.24       1.56        0.26     0.08   0.246
  
  
  ****************************
  Subcatchment Washoff Summary
  ****************************
  
  --------------------------------------------------------------
                                 TSS            TP           TDP
  Subcatchment                    kg            kg            kg
  --------------------------------------------------------------
  S0                           0.426         0.000         0.000
  S1                          51.715         0.015         0.118
  S2                         132.581         0.091         0.220
  S3                          13.126         0.010         0.020
  S4                          58.403         0.036         0.118
  S6                           6.954         0.002         0.015
  S7                         238.030         0.558         0.477
  S8                           0.293         0.000         0.001
  S9                           0.335         0.000         0.001
  S10                          3.326         0.004         0.006
  S11                          0.348         0.000         0.001
  S12                          0.188         0.000         0.000
  S13                         29.263         0.012         0.058
  S14                         10.940         0.007         0.011
  S16                         64.296         0.048         0.041
  S17                        164.040         0.109         0.260
  S18                          0.349         0.000         0.001
  S19                         37.210         0.023         0.044
  S20                          8.195         0.008         0.011
  S21                       2267.547         0.358         0.721
  S22                          2.268         0.003         0.004
  S23                         31.678         0.016         0.025
  S24                         13.617         0.010         0.023
  S25                         22.874         0.013         0.021
  S27                          8.922         0.008         0.011
  S28                          0.000         0.000         0.000
  S29                          0.000         0.000         0.000
  S30                          0.000         0.000         0.000
  S31                          0.000         0.000         0.000
  S32                          7.360         0.002         0.007
  S33                         13.461         0.012         0.022
  S34                        629.583         0.201         0.399
  S35                          5.798         0.005         0.007
  S36                         18.602         0.003         0.017
  S37                          9.382         0.007         0.011
  S39                        183.855         0.102         0.219
  S40                         40.555         0.012         0.036
  S41                        106.196         0.084         0.183
  S42                        103.352         0.071         0.170
  S43                         33.687         0.006         0.029
  S44                        240.033         0.161         0.364
  S45                          0.688         0.001         0.001
  S47                         48.225         0.040         0.064
  S48                          3.868         0.004         0.006
  S49                        210.990         0.149         0.289
  S51                         16.988         0.007         0.014
  S52                         66.669         0.051         0.101
  S53                        103.020         0.079         0.183
  S54                        146.374         0.100         0.170
  S55                        214.968         0.144         0.282
  S56                          0.030         0.000         0.000
  S57                         15.244         0.008         0.017
  S58                         42.916         0.034         0.071
  S59                         22.009         0.013         0.026
  S60                         48.543         0.023         0.039
  S61                         13.163         0.003         0.010
  S62                         44.089         0.020         0.035
  S63                         17.350         0.001         0.012
  S64                         25.953         0.015         0.020
  S65                        184.983         0.102         0.258
  --------------------------------------------------------------
  System                    5784.858         2.793         5.269
  
  
  ******************
  Node Depth Summary
  ******************
  
  ---------------------------------------------------------------------------------
                                 Average  Maximum  Maximum  Time of Max    Reported
                                   Depth    Depth      HGL   Occurrence   Max Depth
  Node                 Type       Meters   Meters   Meters  days hr:min      Meters
  ---------------------------------------------------------------------------------
  FID1936              JUNCTION     0.15     0.38  1376.68     0  04:05        0.12
  FID1955              JUNCTION     0.16     0.33  1376.25     0  04:15        0.10
  FID1960              JUNCTION     0.14     0.27  1376.13     0  04:15        0.08
  FID1965              JUNCTION     0.14     0.26  1376.56     0  04:15        0.08
  FID1968              JUNCTION     0.13     0.21  1376.61     0  04:15        0.06
  FID2239              JUNCTION     0.14     0.29  1374.80     0  04:05        0.09
  FID2241              JUNCTION     0.13     0.20  1373.33     0  04:05        0.06
  FID2242              JUNCTION     0.13     0.21  1374.25     0  04:05        0.07
  FID2244              JUNCTION     0.12     0.19  1374.55     0  03:30        0.06
  FID2440              JUNCTION     0.38     0.60  1374.85     0  04:12        0.18
  FID2442              JUNCTION     0.00     0.00  1375.27     0  00:00        0.00
  FID2446              JUNCTION     0.15     0.52  1376.32     0  04:05        0.16
  FID2447              JUNCTION     0.15     0.44  1376.14     0  04:05        0.13
  FID2455              JUNCTION     0.29     0.56  1374.55     0  04:20        0.17
  FID2711              JUNCTION     0.12     0.24  1370.42     0  04:05        0.07
  FID2719              JUNCTION     0.16     0.46  1370.56     0  04:05        0.14
  FID2720              JUNCTION     0.15     0.37  1370.57     0  04:05        0.11
  FID2824              JUNCTION     0.12     0.18  1371.46     0  04:10        0.06
  FID2827              JUNCTION     0.13     0.23  1371.53     0  04:10        0.07
  FID2828              JUNCTION     0.13     0.23  1371.55     0  04:10        0.07
  FID2832              JUNCTION     0.15     0.30  1370.90     0  04:10        0.09
  FID2833              JUNCTION     0.21     0.47  1371.09     0  04:10        0.14
  FID2839              JUNCTION     0.17     0.33  1371.53     0  04:20        0.10
  FID2873              JUNCTION     0.15     0.28  1370.98     0  04:10        0.09
  FID2964              JUNCTION     0.16     0.29  1371.07     0  04:40        0.09
  FID2965              JUNCTION     0.41     0.81  1371.07     0  04:40        0.25
  FID4584              JUNCTION     0.13     0.28  1371.62     0  04:10        0.09
  FID5068              JUNCTION     0.12     0.19  1375.57     0  04:05        0.06
  FID5072              JUNCTION     0.47     0.78  1374.07     0  04:24        0.24
  FID5140              JUNCTION     0.15     0.25  1373.47     0  04:05        0.08
  FID5435              JUNCTION     0.16     0.26  1373.01     0  04:05        0.08
  FID5437              JUNCTION     0.12     0.17  1373.12     0  04:05        0.05
  FID5503              JUNCTION     0.12     0.16  1371.49     0  03:55        0.05
  FID5504              JUNCTION     0.14     0.25  1371.61     0  04:10        0.08
  FID5527              JUNCTION     0.13     0.21  1372.71     0  04:10        0.06
  FID5568              JUNCTION     0.45     0.79  1373.18     0  04:31        0.24
  FID5784              JUNCTION     0.46     0.79  1372.79     0  04:33        0.24
  FID5785              JUNCTION     0.13     0.24  1374.67     0  04:05        0.07
  AFID6926             JUNCTION     0.14     0.25  1370.05     0  04:15        0.08
  AFID7360             JUNCTION     0.46     0.89  1371.02     0  04:40        0.27
  AFID7363             JUNCTION     0.45     0.87  1371.04     0  04:40        0.27
  AFID7376             JUNCTION     0.18     0.39  1371.62     0  04:10        0.12
  AFID7377             JUNCTION     0.38     0.69  1371.37     0  04:38        0.21
  AFID7705             JUNCTION     0.48     0.59  1375.55     0  04:15        0.18
  AFID7706             JUNCTION     0.54     0.64  1375.56     0  04:15        0.20
  AFID7792             JUNCTION     0.17     0.38  1375.18     0  04:05        0.12
  AFID8223             JUNCTION     0.46     0.79  1372.80     0  04:33        0.24
  J1                   JUNCTION     0.70     0.73  1375.72     0  04:17        0.22
  FID4901              JUNCTION     0.43     0.52  1375.59     0  04:16        0.16
  J9                   JUNCTION     0.59     0.62  1375.71     0  04:17        0.19
  J11                  JUNCTION     0.44     0.47  1375.68     0  04:17        0.14
  J12                  JUNCTION     0.43     0.50  1375.61     0  04:16        0.15
  J13                  JUNCTION     0.43     0.51  1375.59     0  04:16        0.16
  FID4902              JUNCTION     0.45     0.54  1375.59     0  04:16        0.16
  J14                  JUNCTION     0.36     0.51  1375.42     0  04:06        0.15
  J15                  JUNCTION     0.34     0.53  1375.19     0  04:07        0.16
  J16                  JUNCTION     0.34     0.53  1375.17     0  04:08        0.16
  FID2449              JUNCTION     0.38     0.61  1374.93     0  04:11        0.19
  J17                  JUNCTION     0.28     0.56  1374.53     0  04:20        0.17
  J19                  JUNCTION     0.41     0.73  1374.28     0  04:24        0.22
  FID5069              JUNCTION     0.49     0.81  1374.07     0  04:24        0.25
  FID5139              JUNCTION     0.46     0.79  1373.15     0  04:31        0.24
  J24                  JUNCTION     0.46     0.80  1373.16     0  04:31        0.24
  FID4984              JUNCTION     0.48     0.81  1372.77     0  04:33        0.25
  FID2669              JUNCTION     0.34     0.68  1369.12     0  04:40        0.21
  FID2712              JUNCTION     0.36     0.72  1369.91     0  04:38        0.22
  FID2718              JUNCTION     0.37     0.73  1369.97     0  04:38        0.22
  FID2838              JUNCTION     0.54     0.97  1370.91     0  04:38        0.30
  FID2825              JUNCTION     0.59     1.04  1370.95     0  04:39        0.32
  FID2823              JUNCTION     0.63     1.10  1370.97     0  04:39        0.33
  FID5505              JUNCTION     0.53     0.97  1370.99     0  04:40        0.30
  FID5436              JUNCTION     0.49     0.81  1372.13     0  04:34        0.25
  FID5438              JUNCTION     0.42     0.74  1372.17     0  04:34        0.23
  J49                  JUNCTION     0.47     0.56  1375.58     0  04:16        0.17
  J50                  JUNCTION     0.51     0.60  1375.57     0  04:16        0.18
  J51                  JUNCTION     0.56     0.67  1375.56     0  04:15        0.20
  J52                  JUNCTION     0.57     0.68  1375.56     0  04:15        0.21
  J53                  JUNCTION     0.36     0.50  1375.42     0  04:06        0.15
  J54                  JUNCTION     0.37     0.49  1375.44     0  04:06        0.15
  J55                  JUNCTION     0.41     0.52  1375.54     0  04:15        0.16
  J56                  JUNCTION     0.39     0.49  1375.52     0  04:15        0.15
  J57                  JUNCTION     0.37     0.47  1375.50     0  04:11        0.14
  J58                  JUNCTION     0.37     0.48  1375.46     0  04:07        0.15
  FID1935              JUNCTION     0.37     0.51  1375.40     0  04:05        0.16
  J59                  JUNCTION     0.37     0.51  1375.38     0  04:06        0.16
  J60                  JUNCTION     0.36     0.51  1375.33     0  04:07        0.15
  J61                  JUNCTION     0.34     0.50  1375.27     0  04:08        0.15
  J62                  JUNCTION     0.33     0.50  1375.25     0  04:08        0.15
  J63                  JUNCTION     0.34     0.53  1375.21     0  04:08        0.16
  J64                  JUNCTION     0.33     0.52  1375.14     0  04:08        0.16
  J65                  JUNCTION     0.30     0.50  1375.08     0  04:09        0.15
  J66                  JUNCTION     0.38     0.60  1374.82     0  04:12        0.18
  J67                  JUNCTION     0.37     0.60  1374.75     0  04:13        0.18
  J68                  JUNCTION     0.36     0.58  1374.65     0  04:21        0.18
  J69                  JUNCTION     0.49     0.78  1374.51     0  04:20        0.24
  J70                  JUNCTION     0.47     0.77  1374.42     0  04:22        0.23
  J71                  JUNCTION     0.45     0.75  1374.35     0  04:23        0.23
  J72                  JUNCTION     0.48     0.79  1374.14     0  04:24        0.24
  J73                  JUNCTION     0.49     0.81  1374.03     0  04:24        0.25
  J74                  JUNCTION     0.50     0.81  1373.79     0  04:28        0.25
  J75                  JUNCTION     0.50     0.81  1373.66     0  04:29        0.25
  J76                  JUNCTION     0.46     0.79  1373.13     0  04:31        0.24
  J77                  JUNCTION     0.46     0.80  1373.00     0  04:31        0.24
  J78                  JUNCTION     0.46     0.80  1372.87     0  04:32        0.24
  J79                  JUNCTION     0.46     0.79  1372.80     0  04:33        0.24
  J80                  JUNCTION     0.39     0.71  1372.20     0  04:34        0.22
  J81                  JUNCTION     0.47     0.79  1371.78     0  04:38        0.24
  J82                  JUNCTION     0.47     0.77  1371.70     0  04:38        0.24
  J83                  JUNCTION     0.39     0.72  1371.53     0  04:39        0.22
  J84                  JUNCTION     0.36     0.66  1371.29     0  04:39        0.20
  J85                  JUNCTION     0.36     0.68  1371.20     0  04:39        0.21
  J86                  JUNCTION     0.38     0.74  1371.12     0  04:40        0.23
  J87                  JUNCTION     0.44     0.85  1371.04     0  04:40        0.26
  J88                  JUNCTION     0.51     0.95  1371.00     0  04:40        0.29
  J89                  JUNCTION     0.55     1.00  1370.99     0  04:40        0.30
  J90                  JUNCTION     0.51     0.94  1370.89     0  04:38        0.29
  J91                  JUNCTION     0.51     0.94  1370.83     0  04:38        0.29
  J92                  JUNCTION     0.51     0.94  1370.78     0  04:38        0.29
  J93                  JUNCTION     0.51     0.94  1370.67     0  04:38        0.29
  J94                  JUNCTION     0.51     0.94  1370.60     0  04:38        0.29
  J95                  JUNCTION     0.51     0.94  1370.58     0  04:37        0.29
  J96                  JUNCTION     0.50     0.93  1370.49     0  04:38        0.28
  J97                  JUNCTION     0.49     0.92  1370.42     0  04:38        0.28
  J98                  JUNCTION     0.49     0.91  1370.36     0  04:39        0.28
  J99                  JUNCTION     0.47     0.89  1370.29     0  04:39        0.27
  J100                 JUNCTION     0.46     0.87  1370.23     0  04:39        0.27
  J101                 JUNCTION     0.44     0.84  1370.16     0  04:39        0.26
  J102                 JUNCTION     0.37     0.74  1370.00     0  04:38        0.22
  J103                 JUNCTION     0.37     0.73  1369.95     0  04:38        0.22
  J104                 JUNCTION     0.36     0.71  1369.87     0  04:38        0.22
  J105                 JUNCTION     0.36     0.70  1369.82     0  04:38        0.21
  J106                 JUNCTION     0.34     0.67  1369.75     0  04:39        0.21
  J107                 JUNCTION     0.34     0.67  1369.61     0  04:39        0.21
  J108                 JUNCTION     0.34     0.67  1369.47     0  04:39        0.21
  J109                 JUNCTION     0.34     0.67  1369.36     0  04:40        0.21
  J110                 JUNCTION     0.34     0.67  1369.26     0  04:40        0.21
  J111                 JUNCTION     0.34     0.68  1369.16     0  04:40        0.21
  J112                 JUNCTION     0.34     0.68  1369.00     0  04:41        0.21
  J113                 JUNCTION     0.34     0.68  1368.91     0  04:41        0.21
  J114                 JUNCTION     0.34     0.68  1368.79     0  04:41        0.21
  J115                 JUNCTION     0.34     0.68  1368.73     0  04:42        0.21
  J116                 JUNCTION     0.34     0.68  1368.66     0  04:42        0.21
  J117                 JUNCTION     0.34     0.68  1368.56     0  04:42        0.21
  J118                 JUNCTION     0.34     0.67  1368.44     0  04:42        0.21
  J119                 JUNCTION     0.35     0.67  1368.37     0  04:42        0.20
  J120                 JUNCTION     0.36     0.66  1368.26     0  04:43        0.20
  FID2451              JUNCTION     0.38     0.60  1374.88     0  04:11        0.18
  J121                 JUNCTION     0.37     0.70  1371.44     0  04:38        0.21
  J122                 JUNCTION     0.38     0.70  1371.41     0  04:38        0.21
  FID3706              JUNCTION     0.51     0.94  1370.68     0  04:38        0.29
  FID2831              JUNCTION     0.51     0.94  1370.57     0  04:37        0.29
  FID2689              OUTFALL      0.25     0.48  1367.98     0  04:43        0.15
  
  
  *******************
  Node Inflow Summary
  *******************
  
  -------------------------------------------------------------------------------------------------
                                  Maximum  Maximum                  Lateral       Total        Flow
                                  Lateral    Total  Time of Max      Inflow      Inflow     Balance
                                   Inflow   Inflow   Occurrence      Volume      Volume       Error
  Node                 Type           CMS      CMS  days hr:min    10^6 ltr    10^6 ltr     Percent
  -------------------------------------------------------------------------------------------------
  FID1936              JUNCTION     0.172    0.172     0  04:05       0.224       0.224       0.076
  FID1955              JUNCTION     0.160    0.160     0  04:15       0.539       0.539       0.032
  FID1960              JUNCTION     0.074    0.074     0  04:15       0.246       0.246       0.069
  FID1965              JUNCTION     0.037    0.037     0  04:15       0.124       0.124       0.141
  FID1968              JUNCTION     0.011    0.011     0  04:15      0.0373      0.0373       0.468
  FID2239              JUNCTION     0.013    0.013     0  04:05      0.0386      0.0386       1.146
  FID2241              JUNCTION     0.000    0.012     0  04:05           0      0.0362       0.479
  FID2242              JUNCTION     0.012    0.012     0  04:05      0.0364      0.0364       0.501
  FID2244              JUNCTION     0.006    0.006     0  03:30      0.0141      0.0141       1.246
  FID2440              JUNCTION     0.000    1.227     0  04:10           0        15.3       0.228
  FID2442              JUNCTION     0.000    0.000     0  00:00           0           0       0.000 ltr
  FID2446              JUNCTION     0.128    0.128     0  04:05       0.159       0.159       0.973
  FID2447              JUNCTION     0.000    0.127     0  04:05           0       0.157      -0.422
  FID2455              JUNCTION     0.091    1.277     0  04:13       0.281        15.4       0.210
  FID2711              JUNCTION     0.000    0.034     0  04:05           0      0.0465       0.409
  FID2719              JUNCTION     0.137    0.137     0  04:05       0.217       0.217       0.219
  FID2720              JUNCTION     0.036    0.036     0  04:05      0.0467      0.0467       0.474
  FID2824              JUNCTION     0.000    0.003     0  04:10    0.000643     0.00957       1.779
  FID2827              JUNCTION     0.000    0.003     0  04:10    0.000728     0.00908       1.677
  FID2828              JUNCTION     0.003    0.003     0  04:10     0.00859     0.00859       2.905
  FID2832              JUNCTION     0.000    0.176     0  04:10           0       0.556       0.057
  FID2833              JUNCTION     0.176    0.176     0  04:10       0.556       0.556       0.052
  FID2839              JUNCTION     0.386    0.386     0  04:20         1.1         1.1       0.033
  FID2873              JUNCTION     0.023    0.023     0  04:10       0.073       0.073       0.836
  FID2964              JUNCTION     0.011    0.011     0  04:10      0.0485      0.0485       0.325
  FID2965              JUNCTION     0.000    1.649     0  04:40           0        16.3       0.281
  FID4584              JUNCTION     0.000    0.002     0  03:38           0    0.000644      25.994
  FID5068              JUNCTION     0.006    0.006     0  04:05      0.0174      0.0174       1.012
  FID5072              JUNCTION     0.094    1.400     0  04:20       0.284        15.5       0.199
  FID5140              JUNCTION     0.108    0.108     0  04:05       0.311       0.311       0.032
  FID5435              JUNCTION     0.209    0.209     0  04:05       0.875       0.875       0.021
  FID5437              JUNCTION     0.002    0.002     0  04:05     0.00474     0.00474       3.817
  FID5503              JUNCTION     0.000    0.000     0  03:55     0.00069     0.00069      33.377
  FID5504              JUNCTION     0.070    0.070     0  04:10       0.221       0.221       0.120
  FID5527              JUNCTION     0.015    0.015     0  04:10      0.0458      0.0457       0.387
  FID5568              JUNCTION     0.003    1.392     0  04:30     0.00678        15.2       0.702
  FID5784              JUNCTION     0.000    1.489     0  04:31           0        15.5       0.100
  FID5785              JUNCTION     0.000    0.013     0  04:05           0      0.0382       0.504
  AFID6926             JUNCTION     0.072    0.072     0  04:15       0.226       0.226       0.079
  AFID7360             JUNCTION     0.000    1.650     0  04:41    0.000415        16.2       0.205
  AFID7363             JUNCTION     0.000    1.649     0  04:41           0        16.2       0.101
  AFID7376             JUNCTION     0.186    0.186     0  04:10       0.603       0.604       0.021
  AFID7377             JUNCTION     0.000    1.650     0  04:36           0        16.4       0.109
  AFID7705             JUNCTION     0.000    0.713     0  04:15           0        14.1       0.268
  AFID7706             JUNCTION     0.000    0.643     0  04:17           0        13.9       0.259
  AFID7792             JUNCTION     0.191    0.191     0  04:05       0.612       0.612       0.029
  AFID8223             JUNCTION     0.000    1.483     0  04:31           0        15.5       0.022
  J1                   JUNCTION     0.667    0.667     0  04:15          21          21       0.151
  FID4901              JUNCTION     0.000    0.483     0  04:19           0        13.8       0.234
  J9                   JUNCTION     0.000    0.667     0  04:15           0          21       0.303
  J11                  JUNCTION     0.000    0.666     0  04:15           0        20.9       0.523
  J12                  JUNCTION     0.007    0.671     0  04:20      0.0229        20.8       0.571
  J13                  JUNCTION    -0.220    0.678     0  04:35       -7.13        20.7      -0.191
  FID4902              JUNCTION     0.000    0.491     0  04:15           0        13.8       0.367
  J14                  JUNCTION     0.293    0.845     0  04:05        0.48        14.3       0.192
  J15                  JUNCTION     0.372    1.130     0  04:06       0.669        14.9       0.158
  J16                  JUNCTION     0.008    1.125     0  04:06      0.0093        14.9       0.159
  FID2449              JUNCTION     0.001    1.078     0  04:09     0.00134        14.7       1.251
  J17                  JUNCTION     0.136    1.380     0  04:20       0.416        15.7       0.101
  J19                  JUNCTION     0.018    1.364     0  04:21      0.0363        15.6       1.222
  FID5069              JUNCTION     0.000    1.400     0  04:20           0        15.5       0.178
  FID5139              JUNCTION     0.000    1.448     0  04:30           0        15.4       0.053
  J24                  JUNCTION     0.014    1.397     0  04:32      0.0413        15.1       0.080
  FID4984              JUNCTION     0.000    1.493     0  04:31           0        15.6       0.822
  FID2669              JUNCTION     0.000    1.940     0  04:40           0        17.8       0.066
  FID2712              JUNCTION     0.000    1.906     0  04:36           0        17.8       0.083
  FID2718              JUNCTION     0.000    1.898     0  04:37           0        17.7       0.059
  FID2838              JUNCTION     0.000    1.807     0  04:36           0        17.3       0.176
  FID2825              JUNCTION     0.000    1.673     0  04:43           0        16.2       0.317
  FID2823              JUNCTION     0.000    1.670     0  04:42           0        16.3       0.487
  FID5505              JUNCTION     0.000    1.668     0  04:41           0        16.4       0.130
  FID5436              JUNCTION     0.000    1.597     0  04:32           0        16.2       0.806
  FID5438              JUNCTION     0.000    1.491     0  04:35           0        15.4       0.149
  J49                  JUNCTION     0.000    0.493     0  04:19           0        13.7       0.588
  J50                  JUNCTION     0.000    0.497     0  04:19    0.000276        13.6       1.029
  J51                  JUNCTION     0.000    0.510     0  04:33           0        13.5       0.830
  J52                  JUNCTION     0.000    0.521     0  04:34           0        13.4       0.246
  J53                  JUNCTION     0.000    0.723     0  04:15           0        13.8       0.209
  J54                  JUNCTION     0.000    0.720     0  04:15           0        13.9       0.310
  J55                  JUNCTION     0.000    0.713     0  04:15           0        14.1       0.297
  J56                  JUNCTION     0.000    0.713     0  04:15           0          14       0.318
  J57                  JUNCTION     0.000    0.714     0  04:15           0          14       0.397
  J58                  JUNCTION     0.002    0.717     0  04:16     0.00672        13.9       0.425
  FID1935              JUNCTION     0.000    0.999     0  04:05           0        14.5       0.247
  J59                  JUNCTION     0.000    0.980     0  04:05           0        14.4       0.342
  J60                  JUNCTION     0.008    0.953     0  04:05     0.00936        14.4       0.535
  J61                  JUNCTION     0.000    0.904     0  04:06           0        14.3       0.359
  J62                  JUNCTION     0.000    0.894     0  04:08           0        14.3       0.161
  J63                  JUNCTION     0.000    0.896     0  04:08           0        14.2       0.164
  J64                  JUNCTION     0.000    1.118     0  04:06           0        14.9       0.164
  J65                  JUNCTION     0.024    1.118     0  04:07      0.0299        14.9       0.951
  J66                  JUNCTION     0.000    1.224     0  04:10           0        15.2       0.288
  J67                  JUNCTION     0.000    1.220     0  04:11           0        15.2       0.429
  J68                  JUNCTION     0.009    1.219     0  04:12      0.0229        15.2       0.464
  J69                  JUNCTION     0.000    1.378     0  04:20           0        15.7       0.450
  J70                  JUNCTION     0.005    1.374     0  04:20      0.0116        15.7       0.577
  J71                  JUNCTION     0.000    1.365     0  04:21           0        15.6       0.416
  J72                  JUNCTION     0.010    1.356     0  04:23      0.0312        15.4       1.361
  J73                  JUNCTION     0.000    1.399     0  04:22           0        15.4       0.395
  J74                  JUNCTION     0.000    1.397     0  04:24           0        15.4       0.581
  J75                  JUNCTION     0.006    1.393     0  04:27       0.012        15.3       0.898
  J76                  JUNCTION     0.000    1.447     0  04:30           0        15.4       0.219
  J77                  JUNCTION     0.083    1.489     0  04:30       0.264        15.6       0.402
  J78                  JUNCTION     0.000    1.486     0  04:30           0        15.6       0.302
  J79                  JUNCTION     0.000    1.483     0  04:31           0        15.5       0.110
  J80                  JUNCTION     0.011    1.492     0  04:33      0.0305        15.5       0.672
  J81                  JUNCTION     0.002    1.596     0  04:34     0.00533        16.1       1.222
  J82                  JUNCTION     0.000    1.586     0  04:37           0        15.9       0.483
  J83                  JUNCTION     0.000    1.585     0  04:38           0        15.9       0.360
  J84                  JUNCTION     0.000    1.649     0  04:37           0        16.4       0.191
  J85                  JUNCTION     0.000    1.648     0  04:37           0        16.4       0.355
  J86                  JUNCTION     0.000    1.646     0  04:39           0        16.3       0.366
  J87                  JUNCTION     0.003    1.649     0  04:41     0.00822        16.2       0.157
  J88                  JUNCTION     0.000    1.651     0  04:42           0        16.2       0.237
  J89                  JUNCTION     0.000    1.668     0  04:42           0        16.3       0.358
  J90                  JUNCTION     0.000    1.807     0  04:37           0        17.2       0.124
  J91                  JUNCTION     0.000    1.807     0  04:37           0        17.2       0.173
  J92                  JUNCTION     0.000    1.806     0  04:38    3.34e-06        17.2       0.215
  J93                  JUNCTION     0.000    1.813     0  04:38           0        17.2       0.115
  J94                  JUNCTION     0.000    1.813     0  04:39    6.07e-06        17.2       0.131
  J95                  JUNCTION     0.000    1.814     0  04:39           0        17.1       0.050
  J96                  JUNCTION     0.000    1.868     0  04:36           0        17.7       0.185
  J97                  JUNCTION     0.000    1.867     0  04:37           0        17.6       0.157
  J98                  JUNCTION     0.000    1.866     0  04:38           0        17.6       0.138
  J99                  JUNCTION     0.000    1.865     0  04:38           0        17.6       0.118
  J100                 JUNCTION     0.000    1.865     0  04:39           0        17.6       0.100
  J101                 JUNCTION     0.000    1.865     0  04:39           0        17.5       0.115
  J102                 JUNCTION     0.000    1.865     0  04:40           0        17.5       0.089
  J103                 JUNCTION     0.000    1.897     0  04:37           0        17.7       0.067
  J104                 JUNCTION     0.000    1.905     0  04:37           0        17.7       0.088
  J105                 JUNCTION     0.000    1.905     0  04:37           0        17.7       0.109
  J106                 JUNCTION     0.000    1.904     0  04:38           0        17.7       0.122
  J107                 JUNCTION     0.000    1.904     0  04:38           0        17.7       0.125
  J108                 JUNCTION     0.000    1.903     0  04:39     2.1e-05        17.7       0.113
  J109                 JUNCTION     0.000    1.903     0  04:39           0        17.6       0.095
  J110                 JUNCTION     0.000    1.903     0  04:40           0        17.6       0.092
  J111                 JUNCTION     0.000    1.902     0  04:40    0.000186        17.6       0.068
  J112                 JUNCTION     0.000    1.939     0  04:40           0        17.8       0.096
  J113                 JUNCTION     0.000    1.939     0  04:40           0        17.8       0.093
  J114                 JUNCTION     0.000    1.939     0  04:41           0        17.8       0.079
  J115                 JUNCTION     0.000    1.939     0  04:41           0        17.8       0.058
  J116                 JUNCTION     0.000    1.938     0  04:41    5.84e-06        17.8       0.077
  J117                 JUNCTION     0.000    1.938     0  04:42           0        17.7       0.095
  J118                 JUNCTION     0.000    1.938     0  04:42           0        17.7       0.082
  J119                 JUNCTION     0.000    1.938     0  04:42           0        17.7       0.080
  J120                 JUNCTION     0.000    1.938     0  04:42           0        17.7       0.098
  FID2451              JUNCTION     0.000    1.077     0  04:10           0        14.7       0.228
  J121                 JUNCTION     0.006    1.585     0  04:39      0.0161        15.8       0.109
  J122                 JUNCTION     0.000    1.585     0  04:39    0.000732        15.8       0.096
  FID3706              JUNCTION     0.000    1.813     0  04:38           0        17.2       0.171
  FID2831              JUNCTION     0.000    1.868     0  04:35           0        17.7       0.109
  FID2689              OUTFALL      0.000    1.938     0  04:43           0        17.7       0.000
  
  
  **********************
  Node Surcharge Summary
  **********************
  
  No nodes were surcharged.
  
  
  *********************
  Node Flooding Summary
  *********************
  
  No nodes were flooded.
  
  
  ***********************
  Outfall Loading Summary
  ***********************
  
  -----------------------------------------------------------------------------------------------------
                         Flow       Avg       Max       Total         Total         Total         Total
                         Freq      Flow      Flow      Volume           TSS            TP           TDP
  Outfall Node           Pcnt       CMS       CMS    10^6 ltr            kg            kg            kg
  -----------------------------------------------------------------------------------------------------
  FID2689               76.79     0.936     1.938      17.674      5703.647         3.129         5.650
  -----------------------------------------------------------------------------------------------------
  System                76.79     0.936     1.938      17.674      5703.647         3.129         5.650
  
  
  ********************
  Link Flow Summary
  ********************
  
  -----------------------------------------------------------------------------
                                 Maximum  Time of Max   Maximum    Max/    Max/
                                  |Flow|   Occurrence   |Veloc|    Full    Full
  Link                 Type          CMS  days hr:min     m/sec    Flow   Depth
  -----------------------------------------------------------------------------
  FID1123              CONDUIT     0.023     0  04:10      0.79    0.39    0.62
  FID1139              CONDUIT     0.134     0  04:05      1.47    0.96    0.75
  FID1148              CONDUIT     0.176     0  04:10      1.04    0.44    0.30
  FID1149              CONDUIT     0.176     0  04:10      2.26    0.06    0.32
  FID3364              CONDUIT     0.185     0  04:10      0.94    0.15    0.40
  FID3671              CONDUIT     0.011     0  04:15      1.13    0.08    0.19
  FID3672              CONDUIT     0.037     0  04:15      1.59    0.27    0.36
  FID3762              CONDUIT     0.074     0  04:15      1.80    0.22    0.47
  FID3765              CONDUIT     0.160     0  04:15      2.60    0.45    0.57
  FID4112              CONDUIT     0.171     0  04:05      1.71    0.30    0.38
  FID4186              CONDUIT     0.012     0  04:05      0.96    0.06    0.16
  FID4187              CONDUIT     0.012     0  04:05      1.52    0.03    0.12
  FID4201              CONDUIT     0.127     0  04:05      1.22    1.30    0.86
  FID4202              CONDUIT     0.126     0  04:05      1.43    0.91    0.72
  FID4203              CONDUIT     0.000     0  00:00      0.00    0.00    0.30
  FID4299              CONDUIT     0.006     0  04:05      0.91    0.02    0.11
  FID4372              CONDUIT     0.107     0  04:05      0.64    0.02    0.33
  FID4498              CONDUIT     0.011     0  04:10      0.26    0.04    0.65
  FID4806              CONDUIT     0.209     0  04:05      4.98    0.03    0.11
  FID4807              CONDUIT     0.002     0  04:05      0.70    0.01    0.07
  FID4882              CONDUIT     0.000     0  03:55      0.04    0.00    0.52
  FID4884              CONDUIT     0.070     0  04:10      1.91    0.02    0.15
  FID4914              CONDUIT     0.015     0  04:10      0.22    0.05    0.58
  FID4915              CONDUIT     0.003     0  04:10      0.22    0.09    0.20
  FID4916              CONDUIT     0.003     0  04:10      0.29    0.08    0.16
  FID4917              CONDUIT     0.003     0  04:10      0.87    0.01    0.54
  FID5307              CONDUIT     0.013     0  04:05      0.46    0.23    0.30
  FID5308              CONDUIT     0.006     0  03:30      1.19    0.03    0.12
  FID5312              CONDUIT     0.013     0  04:05      0.63    0.08    0.18
  FID5865              CONDUIT     0.386     0  04:20      4.32    0.12    0.32
  C9                   CHANNEL     0.667     0  04:15      0.66    0.07    0.47
  C12                  CHANNEL     0.667     0  04:21      0.46    0.29    0.57
  C13                  CHANNEL     0.678     0  04:35      0.62    0.30    0.59
  C14                  CHANNEL     0.463     0  04:35      0.69    0.20    0.60
  C52                  CONDUIT     0.191     0  04:05      1.23    0.30    0.54
  C130                 CONDUIT     0.034     0  04:05      0.61    0.64    0.37
  C131                 CONDUIT     0.034     0  04:05      1.65    0.07    0.40
  C139                 CONDUIT     0.002     0  03:38      0.11    0.02    0.49
  C191                 CHANNEL     0.493     0  04:19      0.48    0.22    0.64
  C193                 CHANNEL     0.510     0  04:33      0.38    0.22    0.74
  C194                 CHANNEL     0.521     0  04:34      0.30    0.23    0.78
  C195                 CHANNEL     0.524     0  04:34      0.35    0.10    0.62
  C196                 CONDUIT     0.484     0  04:19      0.45    0.35    0.67
  C197                 CONDUIT     0.644     0  04:17      0.24    0.30    0.88
  C198                 CHANNEL     0.713     0  04:15      0.30    0.14    0.52
  C199                 CHANNEL     0.713     0  04:15      0.31    3.11    0.60
  C200                 CHANNEL     0.714     0  04:15      0.33    2.81    0.58
  C201                 CHANNEL     0.716     0  04:16      0.34    0.21    0.48
  C202                 CHANNEL     0.720     0  04:15      0.34    0.21    0.49
  C203                 CHANNEL     0.723     0  04:15      0.34    0.21    0.50
  C204                 CHANNEL     0.727     0  04:15      0.51    0.21    0.50
  C205                 CONDUIT     0.832     0  04:06      0.34    0.57    0.62
  C206                 CHANNEL     0.980     0  04:05      0.42    0.29    0.51
  C207                 CHANNEL     0.948     0  04:05      0.41    0.28    0.51
  C208                 CHANNEL     0.904     0  04:06      0.40    0.27    0.50
  C209                 CHANNEL     0.894     0  04:08      0.40    0.26    0.50
  C210                 CHANNEL     0.896     0  04:08      0.48    0.27    0.59
  C211                 CHANNEL     0.899     0  04:09      0.46    0.33    0.54
  C212                 CONDUIT     1.123     0  04:06      0.44    0.65    0.64
  C213                 CHANNEL     1.118     0  04:06      0.58    0.40    0.54
  C214                 CHANNEL     1.109     0  04:07      0.60    0.40    0.52
  C215                 CONDUIT     1.077     0  04:09      0.40    0.62    0.67
  C216                 CONDUIT     1.061     0  04:11      0.49    0.79    0.57
  C217                 CONDUIT     1.075     0  04:11      0.42    0.43    0.44
  C218                 CHANNEL     1.224     0  04:10      0.53    0.44    0.61
  C219                 CHANNEL     1.220     0  04:11      0.53    0.44    0.61
  C220                 CHANNEL     1.214     0  04:12      0.54    0.44    0.60
  C221                 CHANNEL     1.214     0  04:13      0.56    0.44    0.58
  C222                 CONDUIT     1.273     0  04:13      0.54    0.85    0.68
  C223                 CHANNEL     1.378     0  04:20      1.38    0.17    0.59
  C224                 CHANNEL     1.371     0  04:20      0.51    0.89    0.90
  C225                 CHANNEL     1.365     0  04:21      0.52    0.89    0.88
  C226                 CHANNEL     1.359     0  04:21      0.54    0.88    0.86
  C227                 CONDUIT     1.351     0  04:23      0.42    1.09    0.92
  C228                 CHANNEL     1.355     0  04:25      0.67    0.55    0.73
  C229                 CONDUIT     1.397     0  04:22      0.34    0.25    0.53
  C230                 CHANNEL     1.399     0  04:22      0.67    0.57    0.75
  C231                 CHANNEL     1.397     0  04:24      0.67    0.57    0.75
  C232                 CHANNEL     1.392     0  04:27      0.66    0.57    0.75
  C233                 CHANNEL     1.391     0  04:30      0.67    0.57    0.74
  C234                 CONDUIT     1.393     0  04:33      0.51    0.57    0.58
  C235                 CHANNEL     1.397     0  04:32      0.68    0.57    0.74
  C236                 CHANNEL     1.447     0  04:30      0.67    0.69    0.82
  C237                 CHANNEL     1.446     0  04:31      0.66    0.69    0.82
  C238                 CHANNEL     1.486     0  04:30      0.68    0.71    0.82
  C239                 CHANNEL     1.483     0  04:31      0.68    0.71    0.82
  C240                 CHANNEL     1.482     0  04:31      0.68    0.69    0.82
  C241                 CHANNEL     1.483     0  04:31      0.76    0.71    0.82
  C242                 CONDUIT     1.488     0  04:31      0.50    0.52    0.66
  C243                 CHANNEL     1.490     0  04:33      0.72    0.71    0.79
  C244                 CHANNEL     1.491     0  04:35      0.94    0.24    0.47
  C245                 CONDUIT     1.491     0  04:35      0.61    0.41    0.61
  C246                 CHANNEL     1.591     0  04:34      0.58    0.51    0.70
  C247                 CHANNEL     1.586     0  04:37      0.60    0.51    0.68
  C248                 CHANNEL     1.585     0  04:38      0.63    0.51    0.65
  C249                 CHANNEL     1.585     0  04:39      2.75    0.64    0.67
  C250                 CONDUIT     1.585     0  04:39      0.72    0.58    0.54
  C251                 CONDUIT     1.586     0  04:39      0.72    0.58    0.54
  C252                 CHANNEL     1.649     0  04:37      2.09    0.66    0.64
  C253                 CHANNEL     1.648     0  04:37      0.87    0.37    0.63
  C254                 CHANNEL     1.646     0  04:39      1.68    0.37    0.67
  C255                 CHANNEL     1.645     0  04:40      2.11    0.37    0.73
  C256                 CHANNEL     1.649     0  04:41      2.64    0.38    0.79
  C257                 CHANNEL     1.649     0  04:41      0.63    0.38    0.82
  C258                 CONDUIT     1.650     0  04:41      0.59    0.60    0.69
  C259                 CHANNEL     1.651     0  04:42      0.57    0.38    0.87
  C260                 CHANNEL     1.652     0  04:42      4.00    0.38    0.91
  C261                 CHANNEL     1.668     0  04:42      0.58    0.38    0.93
  C262                 CHANNEL     1.670     0  04:42      0.53    0.38    0.97
  C263                 CHANNEL     1.673     0  04:43      0.52    0.39    0.68
  C264                 CONDUIT     1.675     0  04:43      0.55    0.87    0.73
  C265                 CHANNEL     1.807     0  04:37      0.58    0.42    0.61
  C266                 CHANNEL     1.807     0  04:37      0.63    0.35    0.66
  C267                 CHANNEL     1.806     0  04:38      0.63    0.35    0.66
  C268                 CHANNEL     1.806     0  04:38      0.63    0.35    0.66
  C269                 CHANNEL     1.813     0  04:38      0.88    0.36    0.66
  C270                 CHANNEL     1.813     0  04:39      0.63    0.36    0.66
  C271                 CHANNEL     1.814     0  04:39      0.63    0.36    0.66
  C272                 CHANNEL     1.814     0  04:39      1.08    0.36    0.66
  C273                 CHANNEL     1.868     0  04:36      0.66    0.37    0.66
  C274                 CHANNEL     1.867     0  04:37      0.67    0.37    0.65
  C275                 CHANNEL     1.866     0  04:38      0.68    0.37    0.64
  C276                 CHANNEL     1.865     0  04:38      0.70    0.37    0.63
  C277                 CHANNEL     1.865     0  04:39      0.73    0.37    0.62
  C278                 CHANNEL     1.865     0  04:39      0.78    0.37    0.60
  C279                 CHANNEL     1.865     0  04:40      0.91    0.37    0.55
  C280                 CHANNEL     1.866     0  04:40      0.73    0.63    0.75
  C281                 CHANNEL     1.897     0  04:37      0.75    0.65    0.74
  C282                 CHANNEL     1.897     0  04:37      0.76    0.65    0.74
  C283                 CHANNEL     1.905     0  04:37      0.78    0.65    0.73
  C284                 CHANNEL     1.905     0  04:37      0.79    0.65    0.72
  C285                 CHANNEL     1.904     0  04:38      0.81    0.65    0.70
  C286                 CHANNEL     1.904     0  04:38      0.92    0.46    0.69
  C287                 CHANNEL     1.903     0  04:39      0.92    0.46    0.69
  C288                 CHANNEL     1.903     0  04:39      0.92    0.46    0.69
  C289                 CHANNEL     1.903     0  04:40      0.92    0.46    0.69
  C290                 CHANNEL     1.902     0  04:40      0.92    0.46    0.69
  C291                 CHANNEL     1.902     0  04:40      0.95    0.46    0.69
  C292                 CHANNEL     1.939     0  04:40      0.93    0.47    0.69
  C293                 CHANNEL     1.939     0  04:40      0.93    0.47    0.69
  C294                 CHANNEL     1.939     0  04:41      0.93    0.47    0.69
  C295                 CHANNEL     1.939     0  04:41      0.93    0.47    0.69
  C296                 CHANNEL     1.938     0  04:41      0.93    0.47    0.69
  C297                 CHANNEL     1.938     0  04:42      0.93    0.47    0.69
  C298                 CHANNEL     1.938     0  04:42      0.94    0.47    0.69
  C299                 CHANNEL     1.938     0  04:42      0.94    0.47    0.68
  C300                 CHANNEL     1.938     0  04:42      0.96    0.47    0.68
  C301                 CHANNEL     1.938     0  04:43      1.45    0.35    0.44
  C302                 CHANNEL     0.666     0  04:15      0.57    0.10    0.43
  C303                 CHANNEL     0.497     0  04:19      0.43    0.22    0.68
  C353                 CONDUIT     0.072     0  04:15      1.85    0.03    0.11
  
  
  ***************************
  Flow Classification Summary
  ***************************
  
  -------------------------------------------------------------------------------------
                      Adjusted    ---------- Fraction of Time in Flow Class ---------- 
                       /Actual         Up    Down  Sub   Sup   Up    Down  Norm  Inlet 
  Conduit               Length    Dry  Dry   Dry   Crit  Crit  Crit  Crit  Ltd   Ctrl  
  -------------------------------------------------------------------------------------
  FID1123                 1.00   0.24  0.00  0.00  0.29  0.00  0.00  0.47  0.20  0.00
  FID1139                 1.00   0.25  0.00  0.00  0.17  0.00  0.00  0.58  0.12  0.00
  FID1148                 1.00   0.21  0.00  0.00  0.36  0.00  0.00  0.44  0.00  0.00
  FID1149                 1.00   0.24  0.00  0.00  0.42  0.08  0.00  0.26  0.37  0.00
  FID3364                 1.00   0.14  0.07  0.00  0.79  0.00  0.00  0.00  0.64  0.00
  FID3671                 1.00   0.24  0.00  0.00  0.00  0.00  0.00  0.76  0.00  0.00
  FID3672                 1.00   0.24  0.00  0.00  0.00  0.00  0.00  0.76  0.00  0.00
  FID3762                 1.00   0.01  0.22  0.00  0.65  0.12  0.00  0.00  0.62  0.00
  FID3765                 1.00   0.01  0.21  0.00  0.59  0.18  0.00  0.00  0.63  0.00
  FID4112                 1.00   0.22  0.00  0.00  0.00  0.00  0.00  0.78  0.00  0.00
  FID4186                 1.00   0.24  0.00  0.00  0.20  0.25  0.00  0.32  0.00  0.00
  FID4187                 1.00   0.24  0.00  0.00  0.00  0.00  0.00  0.76  0.00  0.00
  FID4201                 1.00   0.22  0.00  0.00  0.73  0.00  0.00  0.05  0.36  0.00
  FID4202                 1.00   0.22  0.00  0.00  0.00  0.00  0.00  0.78  0.00  0.00
  FID4203                 1.00   0.22  0.78  0.00  0.00  0.00  0.00  0.00  0.00  0.00
  FID4299                 1.00   0.24  0.00  0.00  0.00  0.00  0.00  0.76  0.00  0.00
  FID4372                 1.00   0.07  0.12  0.00  0.81  0.00  0.00  0.00  0.66  0.00
  FID4498                 1.00   0.15  0.00  0.00  0.85  0.00  0.00  0.00  0.59  0.00
  FID4806                 1.00   0.17  0.00  0.00  0.00  0.00  0.00  0.83  0.00  0.00
  FID4807                 1.00   0.24  0.00  0.00  0.00  0.00  0.00  0.76  0.00  0.00
  FID4882                 1.00   0.25  0.29  0.00  0.32  0.00  0.00  0.14  0.59  0.00
  FID4884                 1.00   0.23  0.00  0.00  0.18  0.03  0.00  0.55  0.15  0.00
  FID4914                 1.00   0.11  0.13  0.00  0.76  0.00  0.00  0.00  0.61  0.00
  FID4915                 1.00   0.24  0.00  0.00  0.75  0.00  0.00  0.01  0.49  0.00
  FID4916                 1.00   0.25  0.00  0.00  0.58  0.00  0.00  0.18  0.00  0.00
  FID4917                 1.00   0.25  0.00  0.00  0.42  0.01  0.00  0.32  0.31  0.00
  FID5307                 1.00   0.24  0.00  0.00  0.75  0.00  0.00  0.01  0.34  0.00
  FID5308                 1.00   0.24  0.00  0.00  0.00  0.00  0.00  0.76  0.00  0.00
  FID5312                 1.00   0.24  0.00  0.00  0.00  0.00  0.00  0.76  0.00  0.00
  FID5865                 1.00   0.15  0.00  0.00  0.18  0.13  0.00  0.54  0.22  0.00
  C9                      1.00   0.00  0.00  0.00  1.00  0.00  0.00  0.00  0.00  0.00
  C12                     1.00   0.00  0.00  0.00  1.00  0.00  0.00  0.00  0.00  0.00
  C13                     1.00   0.00  0.00  0.00  1.00  0.00  0.00  0.00  0.00  0.00
  C14                     1.00   0.00  0.00  0.00  1.00  0.00  0.00  0.00  0.00  0.00
  C52                     1.00   0.04  0.19  0.00  0.78  0.00  0.00  0.00  0.63  0.00
  C130                    1.00   0.25  0.00  0.00  0.50  0.00  0.00  0.24  0.00  0.00
  C131                    1.00   0.26  0.00  0.00  0.37  0.02  0.00  0.36  0.28  0.00
  C139                    1.00   0.21  0.40  0.00  0.38  0.00  0.01  0.00  0.47  0.00
  C191                    1.00   0.00  0.00  0.00  1.00  0.00  0.00  0.00  0.00  0.00
  C193                    1.00   0.00  0.00  0.00  1.00  0.00  0.00  0.00  0.00  0.00
  C194                    1.00   0.00  0.00  0.00  1.00  0.00  0.00  0.00  0.00  0.00
  C195                    1.00   0.01  0.00  0.00  0.99  0.00  0.00  0.00  0.00  0.00
  C196                    1.00   0.00  0.00  0.00  1.00  0.00  0.00  0.00  0.00  0.00
  C197                    1.00   0.01  0.00  0.00  0.99  0.00  0.00  0.00  0.00  0.00
  C198                    1.00   0.01  0.00  0.00  0.99  0.00  0.00  0.00  0.00  0.00
  C199                    1.00   0.01  0.00  0.00  0.99  0.00  0.00  0.00  0.00  0.00
  C200                    1.00   0.01  0.00  0.00  0.99  0.00  0.00  0.00  0.00  0.00
  C201                    1.00   0.01  0.00  0.00  0.99  0.00  0.00  0.00  0.00  0.00
  C202                    1.00   0.01  0.00  0.00  0.99  0.00  0.00  0.00  0.00  0.00
  C203                    1.00   0.01  0.00  0.00  0.99  0.00  0.00  0.00  0.00  0.00
  C204                    1.00   0.01  0.00  0.00  0.99  0.00  0.00  0.00  0.00  0.00
  C205                    1.00   0.02  0.00  0.00  0.98  0.00  0.00  0.00  0.00  0.00
  C206                    1.00   0.02  0.00  0.00  0.98  0.00  0.00  0.00  0.00  0.00
  C207                    1.00   0.02  0.00  0.00  0.98  0.00  0.00  0.00  0.00  0.00
  C208                    1.00   0.02  0.00  0.00  0.98  0.00  0.00  0.00  0.00  0.00
  C209                    1.00   0.02  0.00  0.00  0.98  0.00  0.00  0.00  0.00  0.00
  C210                    1.00   0.02  0.00  0.00  0.98  0.00  0.00  0.00  0.00  0.00
  C211                    1.00   0.02  0.00  0.00  0.98  0.00  0.00  0.00  0.00  0.00
  C212                    1.00   0.02  0.00  0.00  0.98  0.00  0.00  0.00  0.00  0.00
  C213                    1.00   0.02  0.00  0.00  0.98  0.00  0.00  0.00  0.00  0.00
  C214                    1.00   0.02  0.00  0.00  0.98  0.00  0.00  0.00  0.00  0.00
  C215                    1.00   0.03  0.00  0.00  0.97  0.00  0.00  0.00  0.70  0.00
  C216                    1.00   0.03  0.00  0.00  0.97  0.00  0.00  0.00  0.00  0.00
  C217                    1.00   0.03  0.00  0.00  0.97  0.00  0.00  0.00  0.00  0.00
  C218                    1.00   0.03  0.00  0.00  0.97  0.00  0.00  0.00  0.01  0.00
  C219                    1.00   0.03  0.00  0.00  0.97  0.00  0.00  0.00  0.00  0.00
  C220                    1.00   0.04  0.00  0.00  0.96  0.00  0.00  0.00  0.00  0.00
  C221                    1.00   0.04  0.00  0.00  0.96  0.00  0.00  0.00  0.00  0.00
  C222                    1.00   0.04  0.00  0.00  0.96  0.00  0.00  0.00  0.00  0.00
  C223                    1.00   0.04  0.00  0.00  0.96  0.00  0.00  0.00  0.01  0.00
  C224                    1.00   0.04  0.00  0.00  0.96  0.00  0.00  0.00  0.00  0.00
  C225                    1.00   0.04  0.00  0.00  0.96  0.00  0.00  0.00  0.00  0.00
  C226                    1.00   0.04  0.00  0.00  0.96  0.00  0.00  0.00  0.00  0.00
  C227                    1.00   0.05  0.00  0.00  0.95  0.00  0.00  0.00  0.00  0.00
  C228                    1.00   0.05  0.00  0.00  0.95  0.00  0.00  0.00  0.00  0.00
  C229                    1.00   0.05  0.00  0.00  0.95  0.00  0.00  0.00  0.00  0.00
  C230                    1.00   0.05  0.00  0.00  0.95  0.00  0.00  0.00  0.00  0.00
  C231                    1.00   0.06  0.00  0.00  0.94  0.00  0.00  0.00  0.01  0.00
  C232                    1.00   0.06  0.00  0.00  0.94  0.00  0.00  0.00  0.00  0.00
  C233                    1.00   0.06  0.00  0.00  0.94  0.00  0.00  0.00  0.00  0.00
  C234                    1.00   0.06  0.00  0.00  0.94  0.00  0.00  0.00  0.00  0.00
  C235                    1.00   0.06  0.00  0.00  0.94  0.00  0.00  0.00  0.00  0.00
  C236                    1.00   0.06  0.00  0.00  0.94  0.00  0.00  0.00  0.00  0.00
  C237                    1.00   0.07  0.00  0.00  0.93  0.00  0.00  0.00  0.00  0.00
  C238                    1.00   0.07  0.00  0.00  0.93  0.00  0.00  0.00  0.00  0.00
  C239                    1.00   0.07  0.00  0.00  0.93  0.00  0.00  0.00  0.00  0.00
  C240                    1.00   0.07  0.00  0.00  0.93  0.00  0.00  0.00  0.00  0.00
  C241                    1.00   0.07  0.00  0.00  0.93  0.00  0.00  0.00  0.00  0.00
  C242                    1.00   0.07  0.00  0.00  0.93  0.00  0.00  0.00  0.00  0.00
  C243                    1.00   0.07  0.00  0.00  0.93  0.00  0.00  0.00  0.00  0.00
  C244                    1.00   0.07  0.00  0.00  0.92  0.01  0.00  0.00  0.00  0.00
  C245                    1.00   0.08  0.00  0.00  0.92  0.00  0.00  0.00  0.00  0.00
  C246                    1.00   0.08  0.00  0.00  0.92  0.00  0.00  0.00  0.49  0.00
  C247                    1.00   0.09  0.00  0.00  0.91  0.00  0.00  0.00  0.00  0.00
  C248                    1.00   0.10  0.00  0.00  0.90  0.00  0.00  0.00  0.00  0.00
  C249                    1.00   0.11  0.00  0.00  0.89  0.00  0.00  0.00  0.00  0.00
  C250                    1.00   0.12  0.00  0.00  0.88  0.00  0.00  0.00  0.00  0.00
  C251                    1.00   0.13  0.00  0.00  0.87  0.00  0.00  0.00  0.00  0.00
  C252                    1.00   0.13  0.00  0.00  0.87  0.00  0.00  0.00  0.00  0.00
  C253                    1.00   0.13  0.00  0.00  0.87  0.00  0.00  0.00  0.00  0.00
  C254                    1.00   0.14  0.00  0.00  0.86  0.00  0.00  0.00  0.05  0.00
  C255                    1.00   0.14  0.00  0.00  0.86  0.00  0.00  0.00  0.00  0.00
  C256                    1.00   0.13  0.01  0.00  0.85  0.00  0.00  0.00  0.00  0.00
  C257                    1.00   0.13  0.00  0.00  0.87  0.00  0.00  0.00  0.00  0.00
  C258                    1.00   0.14  0.01  0.00  0.85  0.00  0.00  0.00  0.00  0.00
  C259                    1.00   0.14  0.00  0.00  0.86  0.00  0.00  0.00  0.00  0.00
  C260                    1.00   0.16  0.00  0.00  0.84  0.00  0.00  0.00  0.00  0.00
  C261                    1.00   0.16  0.00  0.00  0.84  0.00  0.00  0.00  0.00  0.00
  C262                    1.00   0.16  0.00  0.00  0.84  0.00  0.00  0.00  0.00  0.00
  C263                    1.00   0.16  0.00  0.00  0.84  0.00  0.00  0.00  0.00  0.00
  C264                    1.00   0.15  0.00  0.00  0.85  0.00  0.00  0.00  0.00  0.00
  C265                    1.00   0.15  0.02  0.00  0.83  0.00  0.00  0.00  0.00  0.00
  C266                    1.00   0.17  0.00  0.00  0.83  0.00  0.00  0.00  0.00  0.00
  C267                    1.00   0.18  0.00  0.00  0.82  0.00  0.00  0.00  0.00  0.00
  C268                    1.00   0.18  0.00  0.00  0.82  0.00  0.00  0.00  0.00  0.00
  C269                    1.00   0.18  0.00  0.00  0.82  0.00  0.00  0.00  0.00  0.00
  C270                    1.00   0.18  0.00  0.00  0.82  0.00  0.00  0.00  0.00  0.00
  C271                    1.00   0.18  0.00  0.00  0.82  0.00  0.00  0.00  0.00  0.00
  C272                    1.00   0.19  0.00  0.00  0.81  0.00  0.00  0.00  0.00  0.00
  C273                    1.00   0.19  0.00  0.00  0.81  0.00  0.00  0.00  0.00  0.00
  C274                    1.00   0.19  0.00  0.00  0.81  0.00  0.00  0.00  0.00  0.00
  C275                    1.00   0.19  0.00  0.00  0.81  0.00  0.00  0.00  0.00  0.00
  C276                    1.00   0.19  0.00  0.00  0.81  0.00  0.00  0.00  0.00  0.00
  C277                    1.00   0.20  0.00  0.00  0.80  0.00  0.00  0.00  0.00  0.00
  C278                    1.00   0.20  0.00  0.00  0.80  0.00  0.00  0.00  0.00  0.00
  C279                    1.00   0.20  0.00  0.00  0.80  0.00  0.00  0.00  0.00  0.00
  C280                    1.00   0.20  0.00  0.00  0.80  0.00  0.00  0.00  0.00  0.00
  C281                    1.00   0.20  0.00  0.00  0.80  0.00  0.00  0.00  0.00  0.00
  C282                    1.00   0.20  0.00  0.00  0.80  0.00  0.00  0.00  0.00  0.00
  C283                    1.00   0.21  0.00  0.00  0.79  0.00  0.00  0.00  0.00  0.00
  C284                    1.00   0.21  0.00  0.00  0.79  0.00  0.00  0.00  0.00  0.00
  C285                    1.00   0.21  0.00  0.00  0.79  0.00  0.00  0.00  0.00  0.00
  C286                    1.00   0.21  0.00  0.00  0.79  0.00  0.00  0.00  0.24  0.00
  C287                    1.00   0.21  0.00  0.00  0.79  0.00  0.00  0.00  0.24  0.00
  C288                    1.00   0.21  0.00  0.00  0.79  0.00  0.00  0.00  0.00  0.00
  C289                    1.00   0.21  0.00  0.00  0.79  0.00  0.00  0.00  0.00  0.00
  C290                    1.00   0.17  0.05  0.00  0.78  0.00  0.00  0.00  0.00  0.00
  C291                    1.00   0.17  0.00  0.00  0.83  0.00  0.00  0.00  0.00  0.00
  C292                    1.00   0.22  0.00  0.00  0.78  0.00  0.00  0.00  0.00  0.00
  C293                    1.00   0.22  0.00  0.00  0.78  0.00  0.00  0.00  0.00  0.00
  C294                    1.00   0.22  0.00  0.00  0.78  0.00  0.00  0.00  0.00  0.00
  C295                    1.00   0.22  0.00  0.00  0.78  0.00  0.00  0.00  0.00  0.00
  C296                    1.00   0.22  0.00  0.00  0.78  0.00  0.00  0.00  0.00  0.00
  C297                    1.00   0.23  0.00  0.00  0.77  0.00  0.00  0.00  0.00  0.00
  C298                    1.00   0.23  0.00  0.00  0.77  0.00  0.00  0.00  0.00  0.00
  C299                    1.00   0.23  0.00  0.00  0.77  0.00  0.00  0.00  0.00  0.00
  C300                    1.00   0.23  0.00  0.00  0.77  0.00  0.00  0.00  0.00  0.00
  C301                    1.00   0.23  0.00  0.00  0.77  0.00  0.00  0.00  0.00  0.00
  C302                    1.00   0.00  0.00  0.00  1.00  0.00  0.00  0.00  0.00  0.00
  C303                    1.00   0.00  0.00  0.00  1.00  0.00  0.00  0.00  0.00  0.00
  C353                    1.00   0.26  0.00  0.00  0.00  0.00  0.00  0.74  0.00  0.00
  
  
  *************************
  Conduit Surcharge Summary
  *************************
  
  ----------------------------------------------------------------------------
                                                           Hours        Hours 
                         --------- Hours Full --------   Above Full   Capacity
  Conduit                Both Ends  Upstream  Dnstream   Normal Flow   Limited
  ----------------------------------------------------------------------------
  FID4201                     0.01      0.01      0.01      0.11         0.01
  FID4498                     0.01      0.01      1.41      0.01         0.01
  FID4882                     0.01      0.01      1.96      0.01         0.01
  FID4914                     0.01      0.01      2.07      0.01         0.01
  FID4917                     0.01      0.01      0.78      0.01         0.01
  C199                        0.01      0.01      0.01      8.53         0.01
  C200                        0.01      0.01      0.01      8.47         0.01
  C227                        0.01      0.01      0.01      0.47         0.01
  C262                        0.01      0.01      0.60      0.01         0.01
  
  
  ***************************
  Link Pollutant Load Summary
  ***************************
  
  --------------------------------------------------------------
                                 TSS            TP           TDP
  Link                            kg            kg            kg
  --------------------------------------------------------------
  FID1123                      6.765         0.002         0.015
  FID1139                     57.415         0.036         0.117
  FID1148                    131.970         0.090         0.220
  FID1149                    131.901         0.090         0.220
  FID3364                    165.789         0.110         0.262
  FID3671                     10.469         0.008         0.017
  FID3672                     42.244         0.034         0.070
  FID3762                    146.030         0.100         0.170
  FID3765                    214.945         0.144         0.282
  FID4112                     65.107         0.050         0.100
  FID4186                     21.139         0.013         0.021
  FID4187                     10.678         0.013         0.020
  FID4201                     40.670         0.038         0.061
  FID4202                     27.277         0.036         0.058
  FID4203                      0.000         0.000         0.000
  FID4299                      1.174         0.006         0.009
  FID4372                    640.374         0.202         0.405
  FID4498                     67.447         0.049         0.042
  FID4806                   2269.758         0.358         0.720
  FID4807                      0.000         0.000         0.000
  FID4882                      0.000         0.000         0.000
  FID4884                     29.235         0.012         0.058
  FID4914                     37.870         0.023         0.044
  FID4915                      0.000         0.000         0.000
  FID4916                      0.000         0.000         0.000
  FID4917                      0.000         0.000         0.000
  FID5307                     10.484         0.010         0.022
  FID5308                      2.137         0.005         0.008
  FID5312                      6.570         0.009         0.021
  FID5865                    237.956         0.558         0.477
  C9                         186.257         1.058         1.318
  C12                        185.291         1.043         1.299
  C13                        205.918         1.049         1.319
  C14                        135.007         0.691         0.873
  C52                        239.209         0.161         0.365
  C130                         9.808         0.009         0.018
  C131                         6.558         0.009         0.018
  C139                         1.407         0.001         0.002
  C191                       187.504         0.727         0.951
  C193                       187.496         0.709         0.928
  C194                       184.993         0.703         0.924
  C195                       184.568         0.701         0.922
  C196                       177.267         0.722         0.939
  C197                       399.705         0.843         1.201
  C198                       545.585         0.941         1.368
  C199                       547.764         0.939         1.366
  C200                       546.460         0.935         1.362
  C201                       551.063         0.932         1.358
  C202                       559.905         0.930         1.362
  C203                       559.546         0.927         1.358
  C204                       556.570         0.924         1.354
  C205                       661.869         1.003         1.538
  C206                       725.650         1.050         1.634
  C207                       730.601         1.049         1.636
  C208                       748.468         1.052         1.646
  C209                       739.604         1.045         1.634
  C210                       740.071         1.044         1.633
  C211                       738.737         1.042         1.630
  C212                       949.807         1.190         1.917
  C213                       953.051         1.192         1.921
  C214                       954.050         1.191         1.920
  C215                      1047.181         1.225         1.989
  C216                      1003.303         1.197         1.940
  C217                      1031.523         1.232         1.996
  C218                      1269.352         1.390         2.357
  C219                      1273.655         1.389         2.358
  C220                      1275.861         1.386         2.356
  C221                      1311.472         1.389         2.382
  C222                      1401.032         1.452         2.534
  C223                      1510.642         1.536         2.720
  C224                      1528.350         1.541         2.735
  C225                      1536.338         1.532         2.730
  C226                      1535.986         1.529         2.726
  C227                      1610.312         1.552         2.778
  C228                      1596.306         1.532         2.748
  C229                      1779.771         1.631         2.962
  C230                      1778.790         1.635         2.967
  C231                      1799.689         1.641         2.985
  C232                      1788.068         1.630         2.965
  C233                      1838.491         1.639         3.006
  C234                      1802.809         1.621         2.963
  C235                      1814.379         1.632         2.982
  C236                      2452.970         1.833         3.385
  C237                      2472.164         1.837         3.396
  C238                      2655.974         1.935         3.649
  C239                      2644.016         1.928         3.635
  C240                      2635.156         1.924         3.626
  C241                      2636.888         1.930         3.634
  C242                      2649.664         1.939         3.657
  C243                      2715.923         1.963         3.712
  C244                      2687.327         1.955         3.685
  C245                      2689.434         1.954         3.683
  C246                      5068.766         2.332         4.451
  C247                      4971.247         2.321         4.436
  C248                      5013.301         2.325         4.445
  C249                      4951.427         2.311         4.419
  C250                      4951.427         2.316         4.426
  C251                      4954.228         2.316         4.426
  C252                      5114.441         2.424         4.684
  C253                      5149.707         2.428         4.694
  C254                      5167.815         2.429         4.697
  C255                      5159.648         2.424         4.689
  C256                      5206.327         2.467         4.720
  C257                      5188.089         2.467         4.719
  C258                      5189.806         2.466         4.718
  C259                      5230.321         2.471         4.727
  C260                      5187.731         2.462         4.712
  C261                      5226.334         2.474         4.771
  C262                      5282.789         2.479         4.778
  C263                      5239.745         2.469         4.762
  C264                      5229.577         2.464         4.754
  C265                      5451.667         3.015         5.224
  C266                      5473.192         3.021         5.229
  C267                      5466.439         3.017         5.224
  C268                      5489.127         3.022         5.228
  C269                      5454.013         3.009         5.227
  C270                      5478.774         3.016         5.233
  C271                      5456.600         3.008         5.224
  C272                      5452.441         3.006         5.222
  C273                      5607.244         3.102         5.447
  C274                      5602.366         3.099         5.443
  C275                      5597.709         3.096         5.439
  C276                      5595.531         3.094         5.435
  C277                      5590.734         3.091         5.432
  C278                      5589.761         3.090         5.430
  C279                      5591.850         3.089         5.429
  C280                      5585.691         3.086         5.426
  C281                      5641.582         3.121         5.541
  C282                      5644.714         3.122         5.541
  C283                      5650.768         3.130         5.557
  C284                      5651.976         3.129         5.556
  C285                      5654.322         3.129         5.555
  C286                      5657.338         3.129         5.555
  C287                      5657.289         3.127         5.553
  C288                      5654.845         3.125         5.550
  C289                      5654.115         3.124         5.548
  C290                      5654.566         3.124         5.547
  C291                      5649.200         3.121         5.544
  C292                      5707.913         3.137         5.663
  C293                      5706.444         3.136         5.661
  C294                      5707.950         3.136         5.660
  C295                      5703.387         3.133         5.657
  C296                      5704.601         3.133         5.657
  C297                      5707.686         3.133         5.657
  C298                      5707.923         3.133         5.656
  C299                      5704.494         3.131         5.653
  C300                      5706.334         3.131         5.652
  C301                      5703.647         3.129         5.650
  C302                       185.728         1.053         1.313
  C303                       187.877         0.720         0.942
  C353                        51.670         0.015         0.118
  

  Analysis begun on:  Tue Oct 10 17:33:30 2017
  Analysis ended on:  Tue Oct 10 17:33:44 2017
  Total elapsed time: 00:00:14