
  EPA STORM WATER MANAGEMENT MODEL - VERSION 5.1 (Build 5.1.010)
  --------------------------------------------------------------

  WARNING 04: minimum elevation drop used for Conduit C199
  WARNING 04: minimum elevation drop used for Conduit C200
  WARNING 02: maximum depth increased for Node FID1955
  WARNING 02: maximum depth increased for Node FID1960
  WARNING 02: maximum depth increased for Node FID1965
  WARNING 02: maximum depth increased for Node FID1968
  WARNING 02: maximum depth increased for Node FID2244
  WARNING 02: maximum depth increased for Node FID2442
  WARNING 02: maximum depth increased for Node FID2446
  WARNING 02: maximum depth increased for Node FID5504
  WARNING 02: maximum depth increased for Node FID5527
  WARNING 02: maximum depth increased for Node AFID6926
  WARNING 02: maximum depth increased for Node AFID7376
  
  *********************************************************
  NOTE: The summary statistics displayed in this report are
  based on results found at every computational time step,  
  not just on results from each reporting time step.
  *********************************************************
  
  ****************
  Analysis Options
  ****************
  Flow Units ............... CMS
  Process Models:
    Rainfall/Runoff ........ YES
    RDII ................... NO
    Snowmelt ............... NO
    Groundwater ............ NO
    Flow Routing ........... YES
    Ponding Allowed ........ YES
    Water Quality .......... YES
  Infiltration Method ...... GREEN_AMPT
  Flow Routing Method ...... DYNWAVE
  Starting Date ............ MAY-06-2016 15:00:00
  Ending Date .............. MAY-07-2016 00:00:00
  Antecedent Dry Days ...... 0.0
  Report Time Step ......... 00:01:00
  Wet Time Step ............ 00:01:00
  Dry Time Step ............ 01:00:00
  Routing Time Step ........ 5.00 sec
  Variable Time Step ....... YES
  Maximum Trials ........... 8
  Number of Threads ........ 3
  Head Tolerance ........... 0.001500 m
  
  
  **************************        Volume         Depth
  Runoff Quantity Continuity     hectare-m            mm
  **************************     ---------       -------
  Total Precipitation ......         2.583         6.709
  Evaporation Loss .........         0.000         0.000
  Infiltration Loss ........         1.178         3.059
  Surface Runoff ...........         0.920         2.391
  Final Storage ............         0.485         1.260
  Continuity Error (%) .....        -0.001
  
  
  **************************           TSS            TP           TDP
  Runoff Quality Continuity             kg            kg            kg
  **************************    ----------    ----------    ----------
  Initial Buildup ..........         0.000         0.000         0.000
  Surface Buildup ..........     11424.841        10.697        10.815
  Wet Deposition ...........         0.000         0.000         0.000
  Sweeping Removal .........         0.000         0.000         0.000
  Infiltration Loss ........         0.000         0.000         0.000
  BMP Removal ..............         0.563         0.000         0.000
  Surface Runoff ...........      5624.629         4.140         4.499
  Remaining Buildup ........      5799.650         6.556         6.316
  Continuity Error (%) .....         0.000         0.000         0.000
  
  
  **************************        Volume        Volume
  Flow Routing Continuity        hectare-m      10^6 ltr
  **************************     ---------     ---------
  Dry Weather Inflow .......         0.000         0.000
  Wet Weather Inflow .......         0.920         9.204
  Groundwater Inflow .......         0.000         0.000
  RDII Inflow ..............         0.000         0.000
  External Inflow ..........         1.384        13.843
  External Outflow .........         1.660        16.604
  Flooding Loss ............         0.000         0.000
  Evaporation Loss .........         0.000         0.000
  Exfiltration Loss ........         0.000         0.000
  Initial Stored Volume ....         0.000         0.000
  Final Stored Volume ......         0.651         6.512
  Continuity Error (%) .....        -0.297
  
  
  **************************           TSS            TP           TDP
  Quality Routing Continuity            kg            kg            kg
  **************************    ----------    ----------    ----------
  Dry Weather Inflow .......         0.000         0.000         0.000
  Wet Weather Inflow .......      5222.332         4.127         4.458
  Groundwater Inflow .......         0.000         0.000         0.000
  RDII Inflow ..............         0.000         0.000         0.000
  External Inflow ..........       137.985         1.039         1.284
  External Outflow .........      5232.780         4.718         5.017
  Flooding Loss ............         0.000         0.000         0.000
  Exfiltration Loss ........         0.000         0.000         0.000
  Mass Reacted .............         0.000         0.000         0.000
  Initial Stored Mass ......         0.000         0.000         0.000
  Final Stored Mass ........        50.072         0.419         0.611
  Continuity Error (%) .....         1.445         0.550         1.992
  
  
  *************************
  Highest Continuity Errors
  *************************
  Node J72 (1.63%)
  Node FID2824 (1.59%)
  Node J19 (1.52%)
  Node J81 (1.49%)
  Node FID2449 (1.47%)
  
  
  ***************************
  Time-Step Critical Elements
  ***************************
  Link C241 (90.86%)
  Link C14 (8.23%)
  
  
  ********************************
  Highest Flow Instability Indexes
  ********************************
  All links are stable.
  
  
  *************************
  Routing Time Step Summary
  *************************
  Minimum Time Step           :     0.01 sec
  Average Time Step           :     0.93 sec
  Maximum Time Step           :     5.00 sec
  Percent in Steady State     :     0.00
  Average Iterations per Step :     2.00
  Percent Not Converging      :     0.00
  
  
  ***************************
  Subcatchment Runoff Summary
  ***************************
  
  --------------------------------------------------------------------------------------------------------
                            Total      Total      Total      Total      Total       Total     Peak  Runoff
                           Precip      Runon       Evap      Infil     Runoff      Runoff   Runoff   Coeff
  Subcatchment                 mm         mm         mm         mm         mm    10^6 ltr      CMS
  --------------------------------------------------------------------------------------------------------
  S0                         5.84       0.00       0.00       4.99       0.63        0.00     0.00   0.108
  S1                         5.84       0.00       0.00       2.33       2.57        0.25     0.08   0.441
  S2                         6.35       0.00       0.00       1.59       3.58        0.62     0.20   0.564
  S3                         5.84       0.00       0.00       3.66       1.61        0.05     0.04   0.276
  S4                         5.84       0.00       0.00       2.55       2.43        0.24     0.16   0.415
  S6                         6.35       0.00       0.00      -0.01       4.32        0.08     0.03   0.681
  S7                         6.35       0.00       0.00       2.49       2.47        0.97     0.32   0.389
  S8                         6.35       0.00       0.00      -0.01       4.34        0.00     0.00   0.683
  S9                         6.35       0.00       0.00       1.39       3.75        0.00     0.00   0.591
  S10                        6.35       0.00       0.00       1.52       3.66        0.01     0.00   0.576
  S11                        6.35       0.00       0.00       4.89       1.12        0.00     0.00   0.176
  S12                        6.35       0.00       0.00       1.77       3.47        0.00     0.00   0.547
  S13                        6.35       0.00       0.00       2.04       3.25        0.25     0.08   0.512
  S14                        6.35       0.00       0.00       4.30       1.56        0.01     0.00   0.245
  S16                        6.35       0.00       0.00       0.99       0.18        0.01     0.00   0.029
  S17                        6.35       0.00       0.00       1.70       3.49        0.67     0.21   0.550
  S18                        6.35       0.00       0.00       1.00       4.05        0.00     0.00   0.638
  S19                        6.35       0.00       0.00       3.23       2.35        0.05     0.02   0.371
  S20                        6.35       0.00       0.00       1.88       3.38        0.02     0.01   0.533
  S21                        6.35       0.00       0.00       3.71       0.60        0.32     0.07   0.095
  S22                        6.35       0.00       0.00       1.32       3.80        0.01     0.00   0.599
  S23                        6.35       0.00       0.00       3.62       2.06        0.03     0.01   0.325
  S24                        6.35       0.00       0.00       3.39       2.23        0.04     0.01   0.352
  S25                        6.35       0.00       0.00       2.11       3.20        0.04     0.01   0.504
  S27                        6.35       0.00       0.00       2.49       2.92        0.02     0.01   0.460
  S28                        5.84       0.00       0.00       5.83       0.01        0.00     0.00   0.001
  S29                        5.84       0.00       0.00       5.80       0.04        0.00     0.00   0.006
  S30                        6.35       0.00       0.00       6.33       0.02        0.00     0.00   0.003
  S31                        6.35       0.00       0.00       6.34       0.01        0.00     0.00   0.001
  S32                        6.35       0.00       0.00       4.54       1.37        0.01     0.00   0.216
  S33                        6.35       0.00       0.00       1.13       3.94        0.05     0.02   0.621
  S34                        6.35       0.00       0.00       3.28       1.08        0.38     0.09   0.170
  S35                        6.35       0.00       0.00       3.38       2.25        0.01     0.00   0.355
  S36                        6.35       0.00       0.00       4.94       1.07        0.01     0.01   0.168
  S37                        6.35       0.00       0.00       1.48       3.68        0.02     0.01   0.580
  S39                        6.35       0.00       0.00       3.54       2.13        0.31     0.10   0.335
  S40                        6.35       0.00       0.00       4.26       1.58        0.03     0.01   0.249
  S41                        6.35       0.00       0.00       1.85       3.40        0.46     0.15   0.535
  S42                        6.35       0.00       0.00       2.28       3.07        0.31     0.10   0.484
  S43                        6.35       0.00       0.00       4.61       1.32        0.03     0.01   0.208
  S44                        6.35       0.00       0.00       2.36       3.01        0.68     0.21   0.474
  S45                        8.13       0.00       0.00       4.26       3.17        0.00     0.00   0.390
  S47                        8.13       0.00       0.00       3.10       4.10        0.17     0.14   0.505
  S48                        8.13       0.00       0.00       3.81       3.55        0.01     0.01   0.437
  S49                        8.13       0.00       0.00       3.26       3.93        0.74     0.44   0.484
  S51                        8.13       0.00       0.00       6.88       1.02        0.01     0.01   0.126
  S52                        8.13       0.00       0.00       3.61       3.68        0.25     0.20   0.453
  S53                        8.13       0.00       0.00       3.45       3.79        0.53     0.35   0.466
  S54                        8.13       0.00       0.00       4.59       2.86        0.27     0.08   0.352
  S55                        8.13       0.00       0.00       3.62       3.64        0.59     0.17   0.447
  S56                        8.13       0.00       0.00       5.70       1.97        0.00     0.00   0.242
  S57                        8.13       0.00       0.00       3.05       4.11        0.04     0.01   0.505
  S58                        8.13       0.00       0.00       3.98       3.35        0.14     0.04   0.412
  S59                        8.13       0.00       0.00       6.90       0.99        0.03     0.01   0.122
  S60                        8.13       0.00       0.00       5.59       2.05        0.05     0.02   0.252
  S61                        8.13       0.00       0.00       7.07       0.85        0.01     0.00   0.105
  S62                        8.13       0.00       0.00       6.54       1.29        0.03     0.03   0.159
  S63                        6.35       0.00       0.00       5.25       0.83        0.01     0.01   0.131
  S64                        6.35       0.00       0.00       2.57       2.87        0.04     0.02   0.451
  S65                        6.35       0.00       0.00       4.04       1.74        0.29     0.09   0.274
  
  
  ****************************
  Subcatchment Washoff Summary
  ****************************
  
  --------------------------------------------------------------
                                 TSS            TP           TDP
  Subcatchment                    kg            kg            kg
  --------------------------------------------------------------
  S0                           0.541         0.000         0.000
  S1                          87.959         0.019         0.139
  S2                         181.867         0.102         0.201
  S3                          21.005         0.012         0.052
  S4                          93.050         0.040         0.129
  S6                          11.409         0.002         0.027
  S7                         320.823         0.915         1.319
  S8                           0.390         0.000         0.000
  S9                           0.451         0.000         0.000
  S10                          4.630         0.004         0.002
  S11                          0.476         0.000         0.000
  S12                          0.263         0.000         0.000
  S13                         48.841         0.013         0.111
  S14                         12.001         0.011         0.005
  S16                        360.980         0.007         0.000
  S17                        220.429         0.128         0.222
  S18                          0.472         0.000         0.000
  S19                         42.470         0.032         0.018
  S20                          9.897         0.009         0.002
  S21                       1224.417         0.255         0.220
  S22                          3.127         0.003         0.000
  S23                         32.316         0.027         0.021
  S24                         20.426         0.013         0.024
  S25                         24.600         0.019         0.014
  S27                         11.026         0.010         0.003
  S28                          0.000         0.000         0.000
  S29                          0.000         0.000         0.000
  S30                          0.007         0.000         0.000
  S31                          0.000         0.000         0.000
  S32                          7.945         0.006         0.004
  S33                         18.533         0.014         0.008
  S34                        372.657         0.787         0.266
  S35                          7.009         0.006         0.002
  S36                         21.658         0.015         0.012
  S37                         11.157         0.009         0.004
  S39                        225.584         0.161         0.173
  S40                         44.278         0.036         0.026
  S41                        155.055         0.096         0.151
  S42                        144.996         0.088         0.095
  S43                         37.468         0.028         0.022
  S44                        328.594         0.210         0.226
  S45                          0.858         0.001         0.000
  S47                         59.346         0.046         0.036
  S48                          5.096         0.005         0.001
  S49                        263.235         0.180         0.176
  S51                         18.014         0.014         0.011
  S52                         87.544         0.058         0.061
  S53                        148.021         0.085         0.140
  S54                        161.412         0.123         0.084
  S55                        254.840         0.176         0.151
  S56                          0.055         0.000         0.000
  S57                         15.702         0.010         0.008
  S58                         55.263         0.037         0.031
  S59                         34.046         0.022         0.022
  S60                         50.720         0.043         0.033
  S61                         16.618         0.011         0.007
  S62                         46.434         0.038         0.030
  S63                         21.486         0.015         0.019
  S64                         26.762         0.022         0.018
  S65                        250.369         0.175         0.171
  --------------------------------------------------------------
  System                    5624.629         4.140         4.499
  
  
  ******************
  Node Depth Summary
  ******************
  
  ---------------------------------------------------------------------------------
                                 Average  Maximum  Maximum  Time of Max    Reported
                                   Depth    Depth      HGL   Occurrence   Max Depth
  Node                 Type       Meters   Meters   Meters  days hr:min      Meters
  ---------------------------------------------------------------------------------
  FID1936              JUNCTION     0.16     0.40  1376.70     0  04:05        0.12
  FID1955              JUNCTION     0.17     0.34  1376.26     0  04:15        0.10
  FID1960              JUNCTION     0.16     0.28  1376.14     0  04:15        0.08
  FID1965              JUNCTION     0.15     0.26  1376.56     0  04:15        0.08
  FID1968              JUNCTION     0.14     0.21  1376.61     0  04:15        0.06
  FID2239              JUNCTION     0.15     0.29  1374.80     0  04:05        0.09
  FID2241              JUNCTION     0.13     0.20  1373.33     0  04:05        0.06
  FID2242              JUNCTION     0.14     0.22  1374.26     0  04:05        0.07
  FID2244              JUNCTION     0.13     0.19  1374.55     0  03:30        0.06
  FID2440              JUNCTION     0.46     0.74  1374.98     0  04:22        0.22
  FID2442              JUNCTION     0.00     0.00  1375.27     0  00:00        0.00
  FID2446              JUNCTION     0.17     0.56  1376.36     0  04:05        0.17
  FID2447              JUNCTION     0.16     0.46  1376.16     0  04:05        0.14
  FID2455              JUNCTION     0.39     0.79  1374.78     0  04:30        0.24
  FID2711              JUNCTION     0.13     0.24  1370.42     0  04:05        0.07
  FID2719              JUNCTION     0.17     0.52  1370.62     0  04:05        0.16
  FID2720              JUNCTION     0.16     0.38  1370.58     0  04:05        0.12
  FID2824              JUNCTION     0.13     0.18  1371.46     0  04:10        0.06
  FID2827              JUNCTION     0.14     0.23  1371.53     0  04:10        0.07
  FID2828              JUNCTION     0.14     0.23  1371.55     0  04:10        0.07
  FID2832              JUNCTION     0.17     0.31  1370.91     0  04:10        0.09
  FID2833              JUNCTION     0.22     0.48  1371.10     0  04:10        0.15
  FID2839              JUNCTION     0.18     0.35  1371.55     0  04:10        0.11
  FID2873              JUNCTION     0.16     0.29  1370.99     0  03:55        0.09
  FID2964              JUNCTION     0.17     0.33  1371.11     0  04:44        0.10
  FID2965              JUNCTION     0.48     0.85  1371.11     0  04:43        0.26
  FID4584              JUNCTION     0.14     0.30  1371.64     0  04:10        0.09
  FID5068              JUNCTION     0.13     0.20  1375.58     0  03:30        0.06
  FID5072              JUNCTION     0.56     0.86  1374.15     0  04:33        0.26
  FID5140              JUNCTION     0.16     0.26  1373.48     0  04:05        0.08
  FID5435              JUNCTION     0.16     0.25  1373.00     0  04:05        0.08
  FID5437              JUNCTION     0.13     0.18  1373.13     0  03:30        0.05
  FID5503              JUNCTION     0.12     0.16  1371.49     0  03:49        0.05
  FID5504              JUNCTION     0.16     0.25  1371.61     0  04:10        0.08
  FID5527              JUNCTION     0.15     0.21  1372.71     0  04:10        0.07
  FID5568              JUNCTION     0.54     0.86  1373.25     0  04:36        0.26
  FID5784              JUNCTION     0.55     0.87  1372.86     0  04:35        0.26
  FID5785              JUNCTION     0.14     0.24  1374.67     0  04:05        0.07
  AFID6926             JUNCTION     0.16     0.26  1370.06     0  04:15        0.08
  AFID7360             JUNCTION     0.54     0.92  1371.05     0  04:43        0.28
  AFID7363             JUNCTION     0.52     0.91  1371.08     0  04:43        0.28
  AFID7376             JUNCTION     0.20     0.41  1371.64     0  04:10        0.12
  AFID7377             JUNCTION     0.44     0.73  1371.41     0  04:42        0.22
  AFID7705             JUNCTION     0.55     0.68  1375.64     0  04:15        0.21
  AFID7706             JUNCTION     0.60     0.73  1375.65     0  04:15        0.22
  AFID7792             JUNCTION     0.18     0.39  1375.19     0  04:05        0.12
  AFID8223             JUNCTION     0.55     0.87  1372.87     0  04:35        0.26
  J1                   JUNCTION     0.78     0.82  1375.81     0  04:18        0.25
  FID4901              JUNCTION     0.51     0.61  1375.69     0  04:16        0.19
  J9                   JUNCTION     0.67     0.71  1375.80     0  04:18        0.22
  J11                  JUNCTION     0.51     0.56  1375.77     0  04:18        0.17
  J12                  JUNCTION     0.51     0.59  1375.71     0  04:17        0.18
  J13                  JUNCTION     0.51     0.61  1375.69     0  04:16        0.19
  FID4902              JUNCTION     0.52     0.63  1375.68     0  04:16        0.19
  J14                  JUNCTION     0.43     0.60  1375.51     0  04:06        0.18
  J15                  JUNCTION     0.40     0.64  1375.30     0  04:07        0.19
  J16                  JUNCTION     0.41     0.64  1375.29     0  04:08        0.20
  FID2449              JUNCTION     0.46     0.74  1375.06     0  04:23        0.23
  J17                  JUNCTION     0.38     0.80  1374.77     0  04:30        0.24
  J19                  JUNCTION     0.53     1.00  1374.55     0  04:34        0.31
  FID5069              JUNCTION     0.59     0.89  1374.14     0  04:33        0.27
  FID5139              JUNCTION     0.55     0.87  1373.22     0  04:35        0.26
  J24                  JUNCTION     0.55     0.87  1373.23     0  04:35        0.26
  FID4984              JUNCTION     0.57     0.88  1372.84     0  04:35        0.27
  FID2669              JUNCTION     0.40     0.72  1369.16     0  04:40        0.22
  FID2712              JUNCTION     0.42     0.76  1369.95     0  04:36        0.23
  FID2718              JUNCTION     0.43     0.77  1370.02     0  04:36        0.24
  FID2838              JUNCTION     0.61     1.00  1370.94     0  04:38        0.30
  FID2825              JUNCTION     0.66     1.07  1370.98     0  04:40        0.33
  FID2823              JUNCTION     0.70     1.13  1371.00     0  04:41        0.34
  FID5505              JUNCTION     0.60     1.01  1371.03     0  04:42        0.31
  FID5436              JUNCTION     0.55     0.86  1372.18     0  04:39        0.26
  FID5438              JUNCTION     0.49     0.80  1372.22     0  04:39        0.24
  J49                  JUNCTION     0.54     0.65  1375.67     0  04:16        0.20
  J50                  JUNCTION     0.58     0.70  1375.66     0  04:16        0.21
  J51                  JUNCTION     0.63     0.76  1375.65     0  04:15        0.23
  J52                  JUNCTION     0.64     0.77  1375.65     0  04:15        0.23
  J53                  JUNCTION     0.43     0.60  1375.52     0  04:06        0.18
  J54                  JUNCTION     0.43     0.58  1375.53     0  04:06        0.18
  J55                  JUNCTION     0.48     0.60  1375.63     0  04:15        0.18
  J56                  JUNCTION     0.46     0.58  1375.61     0  04:15        0.18
  J57                  JUNCTION     0.43     0.56  1375.59     0  04:21        0.17
  J58                  JUNCTION     0.43     0.57  1375.55     0  04:21        0.18
  FID1935              JUNCTION     0.43     0.61  1375.50     0  04:05        0.19
  J59                  JUNCTION     0.43     0.61  1375.48     0  04:06        0.18
  J60                  JUNCTION     0.42     0.60  1375.43     0  04:07        0.18
  J61                  JUNCTION     0.41     0.60  1375.37     0  04:08        0.18
  J62                  JUNCTION     0.40     0.60  1375.35     0  04:08        0.18
  J63                  JUNCTION     0.41     0.64  1375.32     0  04:08        0.19
  J64                  JUNCTION     0.40     0.64  1375.25     0  04:08        0.19
  J65                  JUNCTION     0.37     0.62  1375.20     0  04:09        0.19
  J66                  JUNCTION     0.45     0.74  1374.95     0  04:23        0.23
  J67                  JUNCTION     0.45     0.75  1374.90     0  04:24        0.23
  J68                  JUNCTION     0.44     0.76  1374.83     0  04:30        0.23
  J69                  JUNCTION     0.59     1.02  1374.75     0  04:31        0.31
  J70                  JUNCTION     0.58     1.01  1374.66     0  04:32        0.31
  J71                  JUNCTION     0.56     1.01  1374.60     0  04:33        0.31
  J72                  JUNCTION     0.57     0.86  1374.21     0  04:34        0.26
  J73                  JUNCTION     0.59     0.89  1374.11     0  04:34        0.27
  J74                  JUNCTION     0.59     0.88  1373.87     0  04:37        0.27
  J75                  JUNCTION     0.59     0.88  1373.73     0  04:39        0.27
  J76                  JUNCTION     0.55     0.87  1373.20     0  04:35        0.26
  J77                  JUNCTION     0.55     0.87  1373.07     0  04:33        0.26
  J78                  JUNCTION     0.55     0.87  1372.94     0  04:34        0.26
  J79                  JUNCTION     0.55     0.87  1372.88     0  04:35        0.26
  J80                  JUNCTION     0.47     0.77  1372.26     0  04:39        0.23
  J81                  JUNCTION     0.53     0.83  1371.82     0  04:44        0.25
  J82                  JUNCTION     0.52     0.82  1371.75     0  04:45        0.25
  J83                  JUNCTION     0.46     0.77  1371.57     0  04:44        0.23
  J84                  JUNCTION     0.41     0.70  1371.34     0  04:43        0.21
  J85                  JUNCTION     0.42     0.73  1371.25     0  04:44        0.22
  J86                  JUNCTION     0.45     0.79  1371.16     0  04:44        0.24
  J87                  JUNCTION     0.51     0.89  1371.08     0  04:43        0.27
  J88                  JUNCTION     0.59     0.99  1371.03     0  04:42        0.30
  J89                  JUNCTION     0.62     1.03  1371.02     0  04:42        0.32
  J90                  JUNCTION     0.58     0.97  1370.92     0  04:38        0.30
  J91                  JUNCTION     0.58     0.97  1370.86     0  04:38        0.30
  J92                  JUNCTION     0.58     0.97  1370.81     0  04:38        0.30
  J93                  JUNCTION     0.58     0.97  1370.70     0  04:36        0.30
  J94                  JUNCTION     0.58     0.97  1370.63     0  04:35        0.30
  J95                  JUNCTION     0.58     0.97  1370.61     0  04:34        0.30
  J96                  JUNCTION     0.57     0.96  1370.52     0  04:35        0.29
  J97                  JUNCTION     0.56     0.95  1370.45     0  04:36        0.29
  J98                  JUNCTION     0.55     0.94  1370.38     0  04:36        0.29
  J99                  JUNCTION     0.53     0.92  1370.32     0  04:37        0.28
  J100                 JUNCTION     0.52     0.90  1370.26     0  04:37        0.27
  J101                 JUNCTION     0.49     0.87  1370.19     0  04:37        0.26
  J102                 JUNCTION     0.43     0.78  1370.04     0  04:36        0.24
  J103                 JUNCTION     0.42     0.77  1369.99     0  04:36        0.23
  J104                 JUNCTION     0.42     0.75  1369.91     0  04:36        0.23
  J105                 JUNCTION     0.41     0.74  1369.86     0  04:37        0.22
  J106                 JUNCTION     0.39     0.71  1369.79     0  04:37        0.22
  J107                 JUNCTION     0.39     0.71  1369.64     0  04:38        0.22
  J108                 JUNCTION     0.39     0.71  1369.51     0  04:38        0.22
  J109                 JUNCTION     0.39     0.71  1369.40     0  04:39        0.22
  J110                 JUNCTION     0.39     0.71  1369.30     0  04:39        0.22
  J111                 JUNCTION     0.39     0.72  1369.20     0  04:39        0.22
  J112                 JUNCTION     0.39     0.72  1369.04     0  04:40        0.22
  J113                 JUNCTION     0.39     0.72  1368.94     0  04:40        0.22
  J114                 JUNCTION     0.39     0.72  1368.83     0  04:41        0.22
  J115                 JUNCTION     0.39     0.72  1368.77     0  04:41        0.22
  J116                 JUNCTION     0.39     0.72  1368.70     0  04:41        0.22
  J117                 JUNCTION     0.39     0.71  1368.59     0  04:42        0.22
  J118                 JUNCTION     0.39     0.71  1368.49     0  04:42        0.22
  J119                 JUNCTION     0.40     0.71  1368.42     0  04:42        0.22
  J120                 JUNCTION     0.41     0.71  1368.31     0  04:42        0.22
  FID2451              JUNCTION     0.45     0.73  1375.01     0  04:23        0.22
  J121                 JUNCTION     0.44     0.74  1371.49     0  04:44        0.23
  J122                 JUNCTION     0.44     0.74  1371.45     0  04:43        0.23
  FID3706              JUNCTION     0.58     0.97  1370.71     0  04:36        0.30
  FID2831              JUNCTION     0.58     0.97  1370.60     0  04:34        0.30
  FID2689              OUTFALL      0.24     0.44  1367.94     0  04:42        0.13
  
  
  *******************
  Node Inflow Summary
  *******************
  
  -------------------------------------------------------------------------------------------------
                                  Maximum  Maximum                  Lateral       Total        Flow
                                  Lateral    Total  Time of Max      Inflow      Inflow     Balance
                                   Inflow   Inflow   Occurrence      Volume      Volume       Error
  Node                 Type           CMS      CMS  days hr:min    10^6 ltr    10^6 ltr     Percent
  -------------------------------------------------------------------------------------------------
  FID1936              JUNCTION     0.197    0.197     0  04:05       0.247       0.247       0.068
  FID1955              JUNCTION     0.173    0.173     0  04:15       0.593       0.593       0.030
  FID1960              JUNCTION     0.079    0.079     0  04:15        0.27        0.27       0.063
  FID1965              JUNCTION     0.040    0.040     0  04:15       0.136       0.136       0.128
  FID1968              JUNCTION     0.012    0.012     0  04:15       0.041       0.041       0.426
  FID2239              JUNCTION     0.014    0.014     0  04:05      0.0428      0.0428       1.177
  FID2241              JUNCTION     0.000    0.013     0  04:05           0      0.0402       0.431
  FID2242              JUNCTION     0.013    0.013     0  04:05      0.0404      0.0404       0.450
  FID2244              JUNCTION     0.007    0.007     0  03:30      0.0157      0.0157       1.124
  FID2440              JUNCTION     0.000    1.224     0  04:09           0        15.3       0.278
  FID2442              JUNCTION     0.000    0.000     0  00:00           0           0       0.000 ltr
  FID2446              JUNCTION     0.145    0.145     0  04:05       0.175       0.175       1.014
  FID2447              JUNCTION     0.000    0.140     0  04:05           0       0.173      -0.466
  FID2455              JUNCTION     0.100    1.247     0  04:11       0.312        15.3       0.274
  FID2711              JUNCTION     0.000    0.040     0  04:05           0      0.0518       0.398
  FID2719              JUNCTION     0.164    0.164     0  04:05       0.241       0.241       0.260
  FID2720              JUNCTION     0.042    0.042     0  04:05      0.0521      0.0521       0.422
  FID2824              JUNCTION     0.000    0.004     0  04:10    0.000713      0.0107       1.620
  FID2827              JUNCTION     0.000    0.004     0  04:10    0.000807      0.0101       1.371
  FID2828              JUNCTION     0.003    0.003     0  04:10     0.00953     0.00953       2.708
  FID2832              JUNCTION     0.000    0.195     0  04:10           0       0.618       0.049
  FID2833              JUNCTION     0.195    0.195     0  04:10       0.618       0.618       0.042
  FID2839              JUNCTION     0.321    0.321     0  04:10       0.965       0.965       0.038
  FID2873              JUNCTION     0.026    0.026     0  04:10      0.0811      0.0811       0.755
  FID2964              JUNCTION     0.002    0.002     0  04:10      0.0101      0.0101       1.599
  FID2965              JUNCTION     0.000    1.340     0  04:45           0        15.4       0.381
  FID4584              JUNCTION     0.000    0.001     0  03:33           0    0.000745      23.901
  FID5068              JUNCTION     0.008    0.008     0  03:30      0.0193      0.0193       0.912
  FID5072              JUNCTION     0.103    1.219     0  04:30       0.315        15.4       0.247
  FID5140              JUNCTION     0.090    0.090     0  04:05       0.381       0.381       0.027
  FID5435              JUNCTION     0.075    0.075     0  04:05       0.322       0.322       0.056
  FID5437              JUNCTION     0.002    0.002     0  03:30     0.00525     0.00525       3.430
  FID5503              JUNCTION     0.000    0.000     0  03:36    0.000766    0.000766      29.015
  FID5504              JUNCTION     0.078    0.078     0  04:10       0.245       0.245       0.112
  FID5527              JUNCTION     0.017    0.017     0  04:10      0.0508      0.0508       0.346
  FID5568              JUNCTION     0.004    1.208     0  04:39     0.00752          15       0.882
  FID5784              JUNCTION     0.000    1.276     0  04:32           0        15.4       0.118
  FID5785              JUNCTION     0.000    0.014     0  04:05           0      0.0423       0.401
  AFID6926             JUNCTION     0.079    0.079     0  04:15       0.252       0.252       0.070
  AFID7360             JUNCTION     0.000    1.342     0  04:47     0.00046        15.3       0.274
  AFID7363             JUNCTION     0.000    1.341     0  04:46           0        15.4       0.132
  AFID7376             JUNCTION     0.208    0.208     0  04:10       0.671       0.672       0.006
  AFID7377             JUNCTION     0.000    1.341     0  04:40           0        15.6       0.138
  AFID7705             JUNCTION     0.000    0.723     0  04:15           0        14.1       0.308
  AFID7706             JUNCTION     0.000    0.650     0  04:17           0        13.8       0.292
  AFID7792             JUNCTION     0.213    0.213     0  04:05       0.679       0.679       0.026
  AFID8223             JUNCTION     0.000    1.271     0  04:33           0        15.4       0.027
  J1                   JUNCTION     0.668    0.668     0  04:15          21          21       0.173
  FID4901              JUNCTION     0.000    0.484     0  04:20           0        13.7       0.277
  J9                   JUNCTION     0.000    0.667     0  04:15           0          21       0.355
  J11                  JUNCTION     0.000    0.666     0  04:15           0        20.9       0.638
  J12                  JUNCTION     0.007    0.672     0  04:21      0.0251        20.8       0.698
  J13                  JUNCTION    -0.220    0.683     0  04:35       -7.13        20.7      -0.210
  FID4902              JUNCTION     0.000    0.492     0  04:20           0        13.7       0.436
  J14                  JUNCTION     0.348    0.863     0  04:05       0.529        14.2       0.228
  J15                  JUNCTION     0.443    1.167     0  04:05       0.737        14.9       0.188
  J16                  JUNCTION     0.009    1.153     0  04:05      0.0103        14.8       0.189
  FID2449              JUNCTION     0.001    1.071     0  04:09     0.00148        14.7       1.493
  J17                  JUNCTION     0.150    1.336     0  04:08       0.462        15.8       0.137
  J19                  JUNCTION     0.020    1.218     0  04:05      0.0402        15.5       1.543
  FID5069              JUNCTION     0.000    1.219     0  04:30           0        15.4       0.218
  FID5139              JUNCTION     0.000    1.242     0  04:36           0        15.3       0.068
  J24                  JUNCTION     0.017    1.213     0  04:41      0.0457        14.9       0.098
  FID4984              JUNCTION     0.000    1.280     0  04:32           0        15.4       0.990
  FID2669              JUNCTION     0.000    1.580     0  04:39           0        16.8       0.089
  FID2712              JUNCTION     0.000    1.552     0  04:35           0        16.7       0.106
  FID2718              JUNCTION     0.000    1.542     0  04:35           0        16.7       0.073
  FID2838              JUNCTION     0.000    1.431     0  04:37           0        16.2       0.220
  FID2825              JUNCTION     0.000    1.358     0  04:48           0        15.3       0.380
  FID2823              JUNCTION     0.000    1.356     0  04:47           0        15.4       0.620
  FID5505              JUNCTION     0.000    1.354     0  04:46           0        15.5       0.169
  FID5436              JUNCTION     0.000    1.306     0  04:35           0        15.5       1.055
  FID5438              JUNCTION     0.000    1.276     0  04:38           0        15.2       0.181
  J49                  JUNCTION     0.000    0.494     0  04:20           0        13.7       0.705
  J50                  JUNCTION     0.000    0.502     0  04:34    0.000303        13.6       1.215
  J51                  JUNCTION     0.000    0.520     0  04:34           0        13.4       0.960
  J52                  JUNCTION     0.000    0.534     0  04:34           0        13.3       0.283
  J53                  JUNCTION     0.000    0.734     0  04:15           0        13.7       0.259
  J54                  JUNCTION     0.000    0.730     0  04:15           0        13.8       0.383
  J55                  JUNCTION     0.000    0.722     0  04:15           0          14       0.356
  J56                  JUNCTION     0.000    0.722     0  04:15           0          14       0.388
  J57                  JUNCTION     0.000    0.723     0  04:15           0        13.9       0.489
  J58                  JUNCTION     0.002    0.727     0  04:16     0.00738        13.8       0.524
  FID1935              JUNCTION     0.000    1.040     0  04:05           0        14.4       0.293
  J59                  JUNCTION     0.000    1.015     0  04:05           0        14.4       0.419
  J60                  JUNCTION     0.009    0.974     0  04:05      0.0103        14.3       0.654
  J61                  JUNCTION     0.000    0.903     0  04:06           0        14.2       0.441
  J62                  JUNCTION     0.000    0.890     0  04:08           0        14.2       0.200
  J63                  JUNCTION     0.000    0.892     0  04:09           0        14.2       0.203
  J64                  JUNCTION     0.000    1.136     0  04:05           0        14.8       0.199
  J65                  JUNCTION     0.027    1.136     0  04:05      0.0329        14.8       1.161
  J66                  JUNCTION     0.000    1.219     0  04:10           0        15.2       0.349
  J67                  JUNCTION     0.000    1.211     0  04:10           0        15.2       0.517
  J68                  JUNCTION     0.011    1.202     0  04:11      0.0254        15.1       0.551
  J69                  JUNCTION     0.000    1.327     0  04:08           0        15.7       0.546
  J70                  JUNCTION     0.006    1.300     0  04:07      0.0128        15.7       0.703
  J71                  JUNCTION     0.000    1.251     0  04:06           0        15.5       0.515
  J72                  JUNCTION     0.011    1.190     0  04:34      0.0346        15.3       1.652
  J73                  JUNCTION     0.000    1.218     0  04:30           0        15.3       0.505
  J74                  JUNCTION     0.000    1.215     0  04:33           0        15.2       0.740
  J75                  JUNCTION     0.007    1.211     0  04:35      0.0133        15.1       1.144
  J76                  JUNCTION     0.000    1.242     0  04:36           0        15.3       0.272
  J77                  JUNCTION     0.092    1.275     0  04:30       0.293        15.5       0.496
  J78                  JUNCTION     0.000    1.272     0  04:31           0        15.4       0.371
  J79                  JUNCTION     0.000    1.270     0  04:33           0        15.4       0.135
  J80                  JUNCTION     0.013    1.279     0  04:35      0.0338        15.3       0.849
  J81                  JUNCTION     0.002    1.305     0  04:38     0.00591        15.4       1.512
  J82                  JUNCTION     0.000    1.299     0  04:43           0        15.1       0.603
  J83                  JUNCTION     0.000    1.298     0  04:45           0        15.1       0.474
  J84                  JUNCTION     0.000    1.341     0  04:40           0        15.6       0.246
  J85                  JUNCTION     0.000    1.340     0  04:41           0        15.6       0.460
  J86                  JUNCTION     0.000    1.339     0  04:43           0        15.5       0.484
  J87                  JUNCTION     0.003    1.341     0  04:46     0.00912        15.4       0.212
  J88                  JUNCTION     0.000    1.343     0  04:47           0        15.3       0.308
  J89                  JUNCTION     0.000    1.354     0  04:46           0        15.5       0.459
  J90                  JUNCTION     0.000    1.431     0  04:37           0        16.2       0.164
  J91                  JUNCTION     0.000    1.431     0  04:37           0        16.2       0.226
  J92                  JUNCTION     0.000    1.431     0  04:38     3.8e-06        16.1       0.290
  J93                  JUNCTION     0.000    1.438     0  04:39           0        16.1       0.158
  J94                  JUNCTION     0.000    1.439     0  04:39    6.72e-06        16.1       0.164
  J95                  JUNCTION     0.000    1.440     0  04:40           0        16.1       0.064
  J96                  JUNCTION     0.000    1.499     0  04:32           0        16.7       0.238
  J97                  JUNCTION     0.000    1.497     0  04:33           0        16.6       0.202
  J98                  JUNCTION     0.000    1.495     0  04:34           0        16.6       0.177
  J99                  JUNCTION     0.000    1.494     0  04:34           0        16.5       0.150
  J100                 JUNCTION     0.000    1.493     0  04:35           0        16.5       0.127
  J101                 JUNCTION     0.000    1.492     0  04:37           0        16.5       0.148
  J102                 JUNCTION     0.000    1.493     0  04:38           0        16.5       0.116
  J103                 JUNCTION     0.000    1.540     0  04:35           0        16.7       0.087
  J104                 JUNCTION     0.000    1.550     0  04:35           0        16.7       0.113
  J105                 JUNCTION     0.000    1.548     0  04:36           0        16.7       0.140
  J106                 JUNCTION     0.000    1.547     0  04:36           0        16.7       0.159
  J107                 JUNCTION     0.000    1.545     0  04:37           0        16.6       0.162
  J108                 JUNCTION     0.000    1.544     0  04:37    2.36e-05        16.6       0.146
  J109                 JUNCTION     0.000    1.543     0  04:38           0        16.6       0.123
  J110                 JUNCTION     0.000    1.542     0  04:38           0        16.6       0.124
  J111                 JUNCTION     0.000    1.541     0  04:39    0.000206        16.5       0.086
  J112                 JUNCTION     0.000    1.579     0  04:39           0        16.8       0.124
  J113                 JUNCTION     0.000    1.578     0  04:40           0        16.7       0.122
  J114                 JUNCTION     0.000    1.578     0  04:40           0        16.7       0.102
  J115                 JUNCTION     0.000    1.577     0  04:40           0        16.7       0.077
  J116                 JUNCTION     0.000    1.577     0  04:41    6.71e-06        16.7       0.101
  J117                 JUNCTION     0.000    1.576     0  04:41           0        16.7       0.124
  J118                 JUNCTION     0.000    1.576     0  04:41           0        16.7       0.109
  J119                 JUNCTION     0.000    1.576     0  04:42           0        16.6       0.108
  J120                 JUNCTION     0.000    1.576     0  04:42           0        16.6       0.133
  FID2451              JUNCTION     0.000    1.064     0  04:10           0        14.6       0.278
  J121                 JUNCTION     0.006    1.299     0  04:46      0.0179          15       0.139
  J122                 JUNCTION     0.000    1.299     0  04:46    0.000811          15       0.119
  FID3706              JUNCTION     0.000    1.437     0  04:38           0        16.2       0.217
  FID2831              JUNCTION     0.000    1.500     0  04:31           0        16.7       0.146
  FID2689              OUTFALL      0.000    1.576     0  04:42           0        16.6       0.000
  
  
  **********************
  Node Surcharge Summary
  **********************
  
  Surcharging occurs when water rises above the top of the highest conduit.
  ---------------------------------------------------------------------
                                               Max. Height   Min. Depth
                                   Hours       Above Crown    Below Rim
  Node                 Type      Surcharged         Meters       Meters
  ---------------------------------------------------------------------
  FID2446              JUNCTION        0.05          0.024        0.000
  J19                  JUNCTION        0.92          0.143        0.000
  J70                  JUNCTION        0.89          0.154        0.000
  J71                  JUNCTION        0.90          0.149        0.000
  
  
  *********************
  Node Flooding Summary
  *********************
  
  Flooding refers to all water that overflows a node, whether it ponds or not.
  --------------------------------------------------------------------------
                                                             Total   Maximum
                                 Maximum   Time of Max       Flood    Ponded
                        Hours       Rate    Occurrence      Volume     Depth
  Node                 Flooded       CMS   days hr:min    10^6 ltr    Meters
  --------------------------------------------------------------------------
  FID2446                 0.05     0.005      0  03:35       0.000     0.024
  J19                     0.92     0.138      0  04:09       0.087     0.143
  J70                     0.89     0.064      0  04:10       0.054     0.154
  J71                     0.90     0.056      0  04:10       0.042     0.149
  
  
  ***********************
  Outfall Loading Summary
  ***********************
  
  -----------------------------------------------------------------------------------------------------
                         Flow       Avg       Max       Total         Total         Total         Total
                         Freq      Flow      Flow      Volume           TSS            TP           TDP
  Outfall Node           Pcnt       CMS       CMS    10^6 ltr            kg            kg            kg
  -----------------------------------------------------------------------------------------------------
  FID2689               72.66     0.949     1.576      16.603      5157.350         4.352         4.578
  -----------------------------------------------------------------------------------------------------
  System                72.66     0.949     1.576      16.603      5157.350         4.352         4.578
  
  
  ********************
  Link Flow Summary
  ********************
  
  -----------------------------------------------------------------------------
                                 Maximum  Time of Max   Maximum    Max/    Max/
                                  |Flow|   Occurrence   |Veloc|    Full    Full
  Link                 Type          CMS  days hr:min     m/sec    Flow   Depth
  -----------------------------------------------------------------------------
  FID1123              CONDUIT     0.026     0  04:10      0.84    0.42    0.70
  FID1139              CONDUIT     0.157     0  04:05      1.52    1.10    0.86
  FID1148              CONDUIT     0.195     0  04:10      1.09    0.47    0.32
  FID1149              CONDUIT     0.195     0  04:10      2.30    0.07    0.35
  FID3364              CONDUIT     0.208     0  04:10      0.94    0.17    0.42
  FID3671              CONDUIT     0.012     0  04:15      1.18    0.09    0.20
  FID3672              CONDUIT     0.040     0  04:15      1.66    0.29    0.37
  FID3762              CONDUIT     0.079     0  04:15      1.45    0.23    0.59
  FID3765              CONDUIT     0.173     0  04:15      2.28    0.47    0.69
  FID4112              CONDUIT     0.196     0  04:05      1.81    0.34    0.40
  FID4186              CONDUIT     0.013     0  04:05      1.01    0.06    0.17
  FID4187              CONDUIT     0.013     0  04:05      1.59    0.03    0.12
  FID4201              CONDUIT     0.140     0  04:05      1.29    1.40    0.90
  FID4202              CONDUIT     0.139     0  04:05      1.49    0.99    0.76
  FID4203              CONDUIT     0.000     0  00:00      0.00    0.00    0.31
  FID4299              CONDUIT     0.008     0  03:30      1.00    0.03    0.12
  FID4372              CONDUIT     0.090     0  04:05      0.62    0.02    0.37
  FID4498              CONDUIT     0.002     0  04:09      0.32    0.01    0.69
  FID4806              CONDUIT     0.075     0  04:05      1.94    0.02    0.11
  FID4807              CONDUIT     0.002     0  03:30      0.76    0.01    0.08
  FID4882              CONDUIT     0.000     0  03:49      0.10    0.00    0.52
  FID4884              CONDUIT     0.078     0  04:10      1.97    0.03    0.16
  FID4914              CONDUIT     0.017     0  04:10      0.24    0.06    0.58
  FID4915              CONDUIT     0.003     0  04:10      0.25    0.09    0.21
  FID4916              CONDUIT     0.004     0  04:10      0.30    0.09    0.16
  FID4917              CONDUIT     0.004     0  04:10      0.91    0.01    0.54
  FID5307              CONDUIT     0.014     0  04:05      0.48    0.24    0.30
  FID5308              CONDUIT     0.007     0  03:30      1.27    0.04    0.13
  FID5312              CONDUIT     0.014     0  04:05      0.65    0.08    0.19
  FID5865              CONDUIT     0.321     0  04:10      3.34    0.14    0.35
  C9                   CHANNEL     0.667     0  04:15      0.58    0.10    0.54
  C12                  CHANNEL     0.668     0  04:35      0.39    0.40    0.67
  C13                  CHANNEL     0.683     0  04:35      0.53    0.41    0.70
  C14                  CHANNEL     0.469     0  04:35      0.52    0.28    0.71
  C52                  CONDUIT     0.213     0  04:05      1.20    0.32    0.66
  C130                 CONDUIT     0.040     0  04:05      0.66    0.74    0.40
  C131                 CONDUIT     0.040     0  04:05      1.78    0.08    0.45
  C139                 CONDUIT     0.001     0  03:33      0.08    0.02    0.52
  C191                 CHANNEL     0.494     0  04:20      0.40    0.30    0.75
  C193                 CHANNEL     0.520     0  04:34      0.31    0.31    0.85
  C194                 CHANNEL     0.534     0  04:34      0.26    0.32    0.89
  C195                 CHANNEL     0.537     0  04:34      0.30    0.14    0.71
  C196                 CONDUIT     0.485     0  04:20      0.38    0.48    0.79
  C197                 CONDUIT     0.651     0  04:17      0.21    0.42    0.98
  C198                 CHANNEL     0.722     0  04:15      0.26    0.19    0.60
  C199                 CHANNEL     0.722     0  04:15      0.26    4.29    0.71
  C200                 CHANNEL     0.723     0  04:15      0.28    3.88    0.68
  C201                 CHANNEL     0.726     0  04:16      0.27    0.29    0.57
  C202                 CHANNEL     0.730     0  04:15      0.27    0.29    0.58
  C203                 CHANNEL     0.734     0  04:15      0.27    0.30    0.59
  C204                 CHANNEL     0.739     0  04:15      0.39    0.30    0.60
  C205                 CONDUIT     0.844     0  04:05      0.29    0.79    0.73
  C206                 CHANNEL     1.015     0  04:05      0.35    0.41    0.61
  C207                 CHANNEL     0.969     0  04:05      0.33    0.39    0.60
  C208                 CHANNEL     0.903     0  04:06      0.31    0.36    0.60
  C209                 CHANNEL     0.890     0  04:08      0.31    0.36    0.60
  C210                 CHANNEL     0.892     0  04:09      0.38    0.37    0.71
  C211                 CHANNEL     0.896     0  04:09      0.37    0.44    0.65
  C212                 CONDUIT     1.145     0  04:05      0.37    0.90    0.78
  C213                 CHANNEL     1.136     0  04:05      0.47    0.56    0.65
  C214                 CHANNEL     1.118     0  04:06      0.48    0.55    0.64
  C215                 CONDUIT     1.071     0  04:09      0.33    0.84    0.83
  C216                 CONDUIT     1.050     0  04:11      0.41    1.06    0.69
  C217                 CONDUIT     1.061     0  04:11      0.34    0.57    0.53
  C218                 CHANNEL     1.219     0  04:10      0.43    0.60    0.75
  C219                 CHANNEL     1.211     0  04:10      0.43    0.60    0.76
  C220                 CHANNEL     1.197     0  04:11      0.43    0.59    0.77
  C221                 CHANNEL     1.178     0  04:11      0.43    0.58    0.79
  C222                 CONDUIT     1.225     0  04:10      0.43    1.12    0.96
  C223                 CHANNEL     1.327     0  04:08      0.46    0.23    0.80
  C224                 CHANNEL     1.297     0  04:08      0.42    1.15    1.00
  C225                 CHANNEL     1.251     0  04:06      0.42    1.11    1.00
  C226                 CHANNEL     1.208     0  04:06      0.45    1.07    1.00
  C227                 CONDUIT     1.187     0  04:34      0.34    1.31    1.00
  C228                 CHANNEL     1.191     0  04:36      0.52    0.66    0.80
  C229                 CONDUIT     1.217     0  04:30      0.27    0.29    0.58
  C230                 CHANNEL     1.218     0  04:30      0.52    0.68    0.82
  C231                 CHANNEL     1.215     0  04:33      0.52    0.67    0.82
  C232                 CHANNEL     1.211     0  04:35      0.51    0.67    0.82
  C233                 CHANNEL     1.208     0  04:39      0.52    0.67    0.81
  C234                 CONDUIT     1.212     0  04:41      0.41    0.68    0.63
  C235                 CHANNEL     1.213     0  04:41      0.53    0.67    0.80
  C236                 CHANNEL     1.242     0  04:36      0.51    0.81    0.90
  C237                 CHANNEL     1.242     0  04:37      0.51    0.81    0.90
  C238                 CHANNEL     1.272     0  04:31      0.52    0.83    0.90
  C239                 CHANNEL     1.270     0  04:33      0.52    0.83    0.90
  C240                 CHANNEL     1.270     0  04:34      0.52    0.81    0.90
  C241                 CHANNEL     1.271     0  04:33      0.60    0.83    0.90
  C242                 CONDUIT     1.275     0  04:33      0.40    0.61    0.72
  C243                 CHANNEL     1.278     0  04:35      0.56    0.83    0.86
  C244                 CHANNEL     1.276     0  04:38      0.76    0.29    0.50
  C245                 CONDUIT     1.276     0  04:39      0.49    0.48    0.65
  C246                 CHANNEL     1.302     0  04:39      0.44    0.57    0.73
  C247                 CHANNEL     1.299     0  04:43      0.46    0.57    0.72
  C248                 CHANNEL     1.298     0  04:45      0.48    0.57    0.69
  C249                 CHANNEL     1.299     0  04:46      2.44    0.71    0.71
  C250                 CONDUIT     1.299     0  04:46      0.55    0.65    0.58
  C251                 CONDUIT     1.300     0  04:47      0.56    0.65    0.58
  C252                 CHANNEL     1.341     0  04:40      3.66    0.74    0.68
  C253                 CHANNEL     1.340     0  04:41      1.34    0.41    0.67
  C254                 CHANNEL     1.339     0  04:43      1.45    0.41    0.72
  C255                 CHANNEL     1.339     0  04:45      1.87    0.41    0.77
  C256                 CHANNEL     1.341     0  04:46      2.73    0.42    0.82
  C257                 CHANNEL     1.341     0  04:46      3.48    0.42    0.85
  C258                 CONDUIT     1.342     0  04:47      0.46    0.67    0.72
  C259                 CHANNEL     1.343     0  04:47      0.39    0.42    0.90
  C260                 CHANNEL     1.344     0  04:48      0.37    0.42    0.94
  C261                 CHANNEL     1.354     0  04:46      2.13    0.42    0.96
  C262                 CHANNEL     1.356     0  04:47      1.15    0.42    0.99
  C263                 CHANNEL     1.358     0  04:48      0.37    0.43    0.70
  C264                 CONDUIT     1.359     0  04:48      0.43    0.96    0.75
  C265                 CHANNEL     1.431     0  04:37      0.46    0.45    0.63
  C266                 CHANNEL     1.431     0  04:37      0.47    0.38    0.68
  C267                 CHANNEL     1.431     0  04:38      0.50    0.38    0.68
  C268                 CHANNEL     1.431     0  04:39      0.47    0.38    0.68
  C269                 CHANNEL     1.438     0  04:39      0.47    0.38    0.68
  C270                 CHANNEL     1.439     0  04:39      0.48    0.38    0.68
  C271                 CHANNEL     1.440     0  04:40      0.48    0.38    0.68
  C272                 CHANNEL     1.440     0  04:40      0.48    0.38    0.68
  C273                 CHANNEL     1.499     0  04:32      0.50    0.40    0.68
  C274                 CHANNEL     1.497     0  04:33      0.51    0.40    0.67
  C275                 CHANNEL     1.495     0  04:34      0.52    0.40    0.66
  C276                 CHANNEL     1.494     0  04:34      0.53    0.40    0.65
  C277                 CHANNEL     1.493     0  04:35      0.56    0.40    0.64
  C278                 CHANNEL     1.492     0  04:37      0.59    0.40    0.62
  C279                 CHANNEL     1.493     0  04:38      0.68    0.40    0.57
  C280                 CHANNEL     1.495     0  04:38      0.55    0.69    0.79
  C281                 CHANNEL     1.540     0  04:35      0.57    0.71    0.79
  C282                 CHANNEL     1.539     0  04:35      0.57    0.71    0.78
  C283                 CHANNEL     1.550     0  04:35      0.59    0.72    0.77
  C284                 CHANNEL     1.548     0  04:36      0.60    0.72    0.76
  C285                 CHANNEL     1.547     0  04:36      0.62    0.72    0.74
  C286                 CHANNEL     1.545     0  04:37      0.69    0.51    0.72
  C287                 CHANNEL     1.544     0  04:37      0.69    0.51    0.72
  C288                 CHANNEL     1.543     0  04:38      0.69    0.51    0.72
  C289                 CHANNEL     1.542     0  04:38      0.69    0.51    0.72
  C290                 CHANNEL     1.541     0  04:39      0.69    0.51    0.73
  C291                 CHANNEL     1.541     0  04:39      0.68    0.51    0.73
  C292                 CHANNEL     1.579     0  04:39      0.70    0.52    0.73
  C293                 CHANNEL     1.578     0  04:40      0.70    0.52    0.73
  C294                 CHANNEL     1.578     0  04:40      0.70    0.52    0.73
  C295                 CHANNEL     1.577     0  04:40      0.70    0.52    0.73
  C296                 CHANNEL     1.577     0  04:41      0.70    0.52    0.73
  C297                 CHANNEL     1.576     0  04:41      0.70    0.52    0.73
  C298                 CHANNEL     1.576     0  04:41      0.70    0.52    0.73
  C299                 CHANNEL     1.576     0  04:42      0.70    0.52    0.73
  C300                 CHANNEL     1.576     0  04:42      0.71    0.52    0.72
  C301                 CHANNEL     1.576     0  04:42      1.17    0.38    0.44
  C302                 CHANNEL     0.666     0  04:15      0.50    0.14    0.50
  C303                 CHANNEL     0.502     0  04:34      0.36    0.30    0.79
  C353                 CONDUIT     0.079     0  04:15      1.94    0.03    0.11
  
  
  ***************************
  Flow Classification Summary
  ***************************
  
  -------------------------------------------------------------------------------------
                      Adjusted    ---------- Fraction of Time in Flow Class ---------- 
                       /Actual         Up    Down  Sub   Sup   Up    Down  Norm  Inlet 
  Conduit               Length    Dry  Dry   Dry   Crit  Crit  Crit  Crit  Ltd   Ctrl  
  -------------------------------------------------------------------------------------
  FID1123                 1.00   0.15  0.00  0.00  0.45  0.00  0.00  0.40  0.32  0.00
  FID1139                 1.00   0.13  0.00  0.00  0.32  0.00  0.00  0.55  0.22  0.00
  FID1148                 1.00   0.11  0.00  0.00  0.48  0.00  0.00  0.41  0.00  0.00
  FID1149                 1.00   0.12  0.00  0.00  0.72  0.03  0.00  0.13  0.58  0.00
  FID3364                 1.00   0.11  0.00  0.00  0.83  0.00  0.00  0.06  0.65  0.00
  FID3671                 1.00   0.17  0.00  0.00  0.00  0.00  0.00  0.83  0.00  0.00
  FID3672                 1.00   0.15  0.00  0.00  0.00  0.00  0.00  0.85  0.00  0.00
  FID3762                 1.00   0.02  0.13  0.00  0.82  0.04  0.00  0.00  0.67  0.00
  FID3765                 1.00   0.01  0.13  0.00  0.71  0.15  0.00  0.00  0.67  0.00
  FID4112                 1.00   0.13  0.00  0.00  0.00  0.00  0.00  0.87  0.00  0.00
  FID4186                 1.00   0.19  0.00  0.00  0.25  0.24  0.00  0.32  0.00  0.00
  FID4187                 1.00   0.20  0.00  0.00  0.00  0.00  0.00  0.80  0.00  0.00
  FID4201                 1.00   0.13  0.00  0.00  0.78  0.00  0.00  0.09  0.39  0.00
  FID4202                 1.00   0.15  0.00  0.00  0.00  0.00  0.00  0.85  0.00  0.00
  FID4203                 1.00   0.14  0.86  0.00  0.00  0.00  0.00  0.00  0.00  0.00
  FID4299                 1.00   0.19  0.00  0.00  0.00  0.00  0.00  0.81  0.00  0.00
  FID4372                 1.00   0.08  0.05  0.00  0.86  0.00  0.00  0.00  0.68  0.00
  FID4498                 1.00   0.16  0.00  0.00  0.81  0.00  0.00  0.03  0.42  0.00
  FID4806                 1.00   0.14  0.00  0.00  0.00  0.00  0.00  0.86  0.00  0.00
  FID4807                 1.00   0.21  0.00  0.00  0.00  0.00  0.00  0.79  0.00  0.00
  FID4882                 1.00   0.23  0.46  0.00  0.31  0.00  0.00  0.00  0.60  0.00
  FID4884                 1.00   0.12  0.00  0.00  0.32  0.04  0.00  0.52  0.25  0.00
  FID4914                 1.00   0.14  0.01  0.00  0.85  0.00  0.00  0.00  0.66  0.00
  FID4915                 1.00   0.20  0.00  0.00  0.79  0.00  0.00  0.01  0.49  0.00
  FID4916                 1.00   0.21  0.00  0.00  0.61  0.00  0.00  0.18  0.00  0.00
  FID4917                 1.00   0.22  0.00  0.00  0.76  0.00  0.00  0.03  0.59  0.00
  FID5307                 1.00   0.19  0.00  0.00  0.78  0.00  0.00  0.03  0.36  0.00
  FID5308                 1.00   0.19  0.00  0.00  0.00  0.00  0.00  0.81  0.00  0.00
  FID5312                 1.00   0.20  0.00  0.00  0.00  0.00  0.00  0.80  0.00  0.00
  FID5865                 1.00   0.11  0.00  0.00  0.38  0.10  0.00  0.41  0.35  0.00
  C9                      1.00   0.00  0.00  0.00  1.00  0.00  0.00  0.00  0.00  0.00
  C12                     1.00   0.00  0.00  0.00  1.00  0.00  0.00  0.00  0.00  0.00
  C13                     1.00   0.00  0.00  0.00  1.00  0.00  0.00  0.00  0.00  0.00
  C14                     1.00   0.00  0.00  0.00  1.00  0.00  0.00  0.00  0.00  0.00
  C52                     1.00   0.04  0.10  0.00  0.86  0.00  0.00  0.00  0.68  0.00
  C130                    1.00   0.17  0.00  0.00  0.56  0.00  0.00  0.27  0.00  0.00
  C131                    1.00   0.20  0.00  0.00  0.57  0.01  0.00  0.22  0.43  0.00
  C139                    1.00   0.11  0.49  0.00  0.39  0.00  0.01  0.00  0.48  0.00
  C191                    1.00   0.00  0.00  0.00  1.00  0.00  0.00  0.00  0.00  0.00
  C193                    1.00   0.00  0.00  0.00  1.00  0.00  0.00  0.00  0.00  0.00
  C194                    1.00   0.01  0.00  0.00  0.99  0.00  0.00  0.00  0.00  0.00
  C195                    1.00   0.01  0.00  0.00  0.99  0.00  0.00  0.00  0.00  0.00
  C196                    1.00   0.00  0.00  0.00  1.00  0.00  0.00  0.00  0.00  0.00
  C197                    1.00   0.01  0.00  0.00  0.99  0.00  0.00  0.00  0.00  0.00
  C198                    1.00   0.01  0.00  0.00  0.99  0.00  0.00  0.00  0.00  0.00
  C199                    1.00   0.01  0.00  0.00  0.99  0.00  0.00  0.00  0.00  0.00
  C200                    1.00   0.01  0.00  0.00  0.99  0.00  0.00  0.00  0.00  0.00
  C201                    1.00   0.01  0.00  0.00  0.99  0.00  0.00  0.00  0.00  0.00
  C202                    1.00   0.01  0.00  0.00  0.99  0.00  0.00  0.00  0.00  0.00
  C203                    1.00   0.02  0.00  0.00  0.98  0.00  0.00  0.00  0.00  0.00
  C204                    1.00   0.02  0.00  0.00  0.98  0.00  0.00  0.00  0.00  0.00
  C205                    1.00   0.02  0.00  0.00  0.98  0.00  0.00  0.00  0.00  0.00
  C206                    1.00   0.02  0.00  0.00  0.98  0.00  0.00  0.00  0.00  0.00
  C207                    1.00   0.02  0.00  0.00  0.98  0.00  0.00  0.00  0.00  0.00
  C208                    1.00   0.02  0.00  0.00  0.98  0.00  0.00  0.00  0.00  0.00
  C209                    1.00   0.02  0.00  0.00  0.98  0.00  0.00  0.00  0.00  0.00
  C210                    1.00   0.03  0.00  0.00  0.97  0.00  0.00  0.00  0.00  0.00
  C211                    1.00   0.03  0.00  0.00  0.97  0.00  0.00  0.00  0.00  0.00
  C212                    1.00   0.03  0.00  0.00  0.97  0.00  0.00  0.00  0.00  0.00
  C213                    1.00   0.03  0.00  0.00  0.97  0.00  0.00  0.00  0.00  0.00
  C214                    1.00   0.03  0.00  0.00  0.97  0.00  0.00  0.00  0.00  0.00
  C215                    1.00   0.03  0.00  0.00  0.97  0.00  0.00  0.00  0.20  0.00
  C216                    1.00   0.03  0.00  0.00  0.97  0.00  0.00  0.00  0.00  0.00
  C217                    1.00   0.03  0.00  0.00  0.97  0.00  0.00  0.00  0.00  0.00
  C218                    1.00   0.03  0.00  0.00  0.97  0.00  0.00  0.00  0.00  0.00
  C219                    1.00   0.04  0.00  0.00  0.96  0.00  0.00  0.00  0.00  0.00
  C220                    1.00   0.04  0.00  0.00  0.96  0.00  0.00  0.00  0.00  0.00
  C221                    1.00   0.05  0.00  0.00  0.95  0.00  0.00  0.00  0.00  0.00
  C222                    1.00   0.05  0.00  0.00  0.95  0.00  0.00  0.00  0.00  0.00
  C223                    1.00   0.05  0.00  0.00  0.95  0.00  0.00  0.00  0.01  0.00
  C224                    1.00   0.05  0.00  0.00  0.95  0.00  0.00  0.00  0.00  0.00
  C225                    1.00   0.05  0.00  0.00  0.95  0.00  0.00  0.00  0.00  0.00
  C226                    1.00   0.05  0.00  0.00  0.95  0.00  0.00  0.00  0.00  0.00
  C227                    1.00   0.06  0.00  0.00  0.94  0.00  0.00  0.00  0.00  0.00
  C228                    1.00   0.06  0.00  0.00  0.94  0.00  0.00  0.00  0.00  0.00
  C229                    1.00   0.06  0.00  0.00  0.94  0.00  0.00  0.00  0.00  0.00
  C230                    1.00   0.07  0.00  0.00  0.93  0.00  0.00  0.00  0.00  0.00
  C231                    1.00   0.07  0.00  0.00  0.93  0.00  0.00  0.00  0.00  0.00
  C232                    1.00   0.07  0.00  0.00  0.93  0.00  0.00  0.00  0.00  0.00
  C233                    1.00   0.07  0.00  0.00  0.93  0.00  0.00  0.00  0.00  0.00
  C234                    1.00   0.08  0.00  0.00  0.92  0.00  0.00  0.00  0.00  0.00
  C235                    1.00   0.08  0.00  0.00  0.92  0.00  0.00  0.00  0.00  0.00
  C236                    1.00   0.08  0.00  0.00  0.92  0.00  0.00  0.00  0.00  0.00
  C237                    1.00   0.08  0.00  0.00  0.92  0.00  0.00  0.00  0.00  0.00
  C238                    1.00   0.08  0.00  0.00  0.92  0.00  0.00  0.00  0.00  0.00
  C239                    1.00   0.08  0.00  0.00  0.92  0.00  0.00  0.00  0.00  0.00
  C240                    1.00   0.09  0.00  0.00  0.91  0.00  0.00  0.00  0.00  0.00
  C241                    1.00   0.09  0.00  0.00  0.91  0.00  0.00  0.00  0.00  0.00
  C242                    1.00   0.09  0.00  0.00  0.91  0.00  0.00  0.00  0.00  0.00
  C243                    1.00   0.09  0.00  0.00  0.91  0.00  0.00  0.00  0.00  0.00
  C244                    1.00   0.09  0.00  0.00  0.90  0.00  0.00  0.00  0.00  0.00
  C245                    1.00   0.10  0.00  0.00  0.90  0.00  0.00  0.00  0.00  0.00
  C246                    1.00   0.10  0.01  0.00  0.89  0.00  0.00  0.00  0.11  0.00
  C247                    1.00   0.10  0.00  0.00  0.90  0.00  0.00  0.00  0.00  0.00
  C248                    1.00   0.12  0.00  0.00  0.88  0.00  0.00  0.00  0.00  0.00
  C249                    1.00   0.10  0.04  0.00  0.86  0.00  0.00  0.00  0.01  0.00
  C250                    1.00   0.10  0.00  0.00  0.90  0.00  0.00  0.00  0.00  0.00
  C251                    1.00   0.11  0.00  0.00  0.89  0.00  0.00  0.00  0.05  0.00
  C252                    1.00   0.11  0.00  0.00  0.88  0.01  0.00  0.00  0.00  0.00
  C253                    1.00   0.12  0.00  0.00  0.88  0.00  0.00  0.00  0.00  0.00
  C254                    1.00   0.15  0.00  0.00  0.84  0.00  0.00  0.00  0.00  0.00
  C255                    1.00   0.16  0.02  0.00  0.83  0.00  0.00  0.00  0.00  0.00
  C256                    1.00   0.10  0.06  0.00  0.84  0.00  0.00  0.00  0.02  0.00
  C257                    1.00   0.10  0.00  0.00  0.90  0.00  0.00  0.00  0.00  0.00
  C258                    1.00   0.10  0.02  0.00  0.88  0.00  0.00  0.00  0.03  0.00
  C259                    1.00   0.10  0.00  0.00  0.90  0.00  0.00  0.00  0.04  0.00
  C260                    1.00   0.12  0.03  0.00  0.85  0.00  0.00  0.00  0.00  0.00
  C261                    1.00   0.12  0.00  0.00  0.87  0.01  0.00  0.00  0.00  0.00
  C262                    1.00   0.12  0.00  0.00  0.87  0.01  0.00  0.00  0.00  0.00
  C263                    1.00   0.11  0.00  0.00  0.89  0.00  0.00  0.00  0.00  0.00
  C264                    1.00   0.11  0.00  0.00  0.89  0.00  0.00  0.00  0.02  0.00
  C265                    1.00   0.11  0.02  0.00  0.87  0.00  0.00  0.00  0.00  0.00
  C266                    1.00   0.14  0.00  0.00  0.86  0.00  0.00  0.00  0.00  0.00
  C267                    1.00   0.21  0.01  0.00  0.79  0.00  0.00  0.00  0.00  0.00
  C268                    1.00   0.15  0.06  0.00  0.79  0.00  0.00  0.00  0.01  0.00
  C269                    1.00   0.15  0.00  0.00  0.85  0.00  0.00  0.00  0.00  0.00
  C270                    1.00   0.16  0.01  0.00  0.83  0.00  0.00  0.00  0.03  0.00
  C271                    1.00   0.13  0.03  0.00  0.84  0.00  0.00  0.00  0.00  0.00
  C272                    1.00   0.12  0.01  0.00  0.87  0.00  0.00  0.00  0.00  0.00
  C273                    1.00   0.12  0.00  0.00  0.88  0.00  0.00  0.00  0.00  0.00
  C274                    1.00   0.13  0.00  0.00  0.87  0.00  0.00  0.00  0.00  0.00
  C275                    1.00   0.16  0.00  0.00  0.84  0.00  0.00  0.00  0.00  0.00
  C276                    1.00   0.20  0.00  0.00  0.80  0.00  0.00  0.00  0.00  0.00
  C277                    1.00   0.22  0.00  0.00  0.78  0.00  0.00  0.00  0.00  0.00
  C278                    1.00   0.23  0.00  0.00  0.77  0.00  0.00  0.00  0.00  0.00
  C279                    1.00   0.19  0.04  0.00  0.77  0.00  0.00  0.00  0.00  0.00
  C280                    1.00   0.13  0.06  0.00  0.81  0.00  0.00  0.00  0.01  0.00
  C281                    1.00   0.13  0.00  0.00  0.87  0.00  0.00  0.00  0.03  0.00
  C282                    1.00   0.14  0.00  0.00  0.86  0.00  0.00  0.00  0.01  0.00
  C283                    1.00   0.15  0.00  0.00  0.85  0.00  0.00  0.00  0.00  0.00
  C284                    1.00   0.17  0.00  0.00  0.83  0.00  0.00  0.00  0.00  0.00
  C285                    1.00   0.20  0.00  0.00  0.80  0.00  0.00  0.00  0.00  0.00
  C286                    1.00   0.22  0.00  0.00  0.78  0.00  0.00  0.00  0.00  0.00
  C287                    1.00   0.13  0.10  0.00  0.77  0.00  0.00  0.00  0.00  0.00
  C288                    1.00   0.13  0.00  0.00  0.87  0.00  0.00  0.00  0.00  0.00
  C289                    1.00   0.25  0.00  0.00  0.75  0.00  0.00  0.00  0.00  0.00
  C290                    1.00   0.12  0.13  0.00  0.75  0.00  0.00  0.00  0.01  0.00
  C291                    1.00   0.12  0.00  0.00  0.88  0.00  0.00  0.00  0.07  0.00
  C292                    1.00   0.15  0.00  0.00  0.85  0.00  0.00  0.00  0.01  0.00
  C293                    1.00   0.16  0.00  0.00  0.84  0.00  0.00  0.00  0.01  0.00
  C294                    1.00   0.17  0.00  0.00  0.83  0.00  0.00  0.00  0.00  0.00
  C295                    1.00   0.20  0.00  0.00  0.80  0.00  0.00  0.00  0.00  0.00
  C296                    1.00   0.19  0.04  0.00  0.78  0.00  0.00  0.00  0.00  0.00
  C297                    1.00   0.19  0.00  0.00  0.81  0.00  0.00  0.00  0.00  0.00
  C298                    1.00   0.25  0.00  0.00  0.75  0.00  0.00  0.00  0.00  0.00
  C299                    1.00   0.26  0.00  0.00  0.74  0.00  0.00  0.00  0.00  0.00
  C300                    1.00   0.26  0.00  0.00  0.74  0.00  0.00  0.00  0.00  0.00
  C301                    1.00   0.27  0.00  0.00  0.73  0.00  0.00  0.00  0.00  0.00
  C302                    1.00   0.00  0.00  0.00  1.00  0.00  0.00  0.00  0.00  0.00
  C303                    1.00   0.00  0.00  0.00  1.00  0.00  0.00  0.00  0.00  0.00
  C353                    1.00   0.15  0.00  0.00  0.00  0.00  0.00  0.85  0.00  0.00
  
  
  *************************
  Conduit Surcharge Summary
  *************************
  
  ----------------------------------------------------------------------------
                                                           Hours        Hours 
                         --------- Hours Full --------   Above Full   Capacity
  Conduit                Both Ends  Upstream  Dnstream   Normal Flow   Limited
  ----------------------------------------------------------------------------
  FID1123                     0.01      0.01      0.63      0.01         0.01
  FID1139                     0.01      0.01      0.01      0.04         0.01
  FID4201                     0.01      0.05      0.01      0.15         0.01
  FID4498                     0.01      0.01      2.38      0.01         0.01
  FID4882                     0.01      0.01      2.97      0.01         0.01
  FID4914                     0.01      0.01      3.29      0.01         0.01
  FID4917                     0.01      0.01      1.58      0.01         0.01
  C197                        0.01      0.01      0.64      0.01         0.01
  C199                        0.01      0.01      0.01      8.52         0.01
  C200                        0.01      0.01      0.01      8.48         0.01
  C216                        0.01      0.01      0.01      0.31         0.01
  C222                        0.01      0.01      0.01      0.61         0.01
  C224                        0.84      0.89      0.89      0.69         0.50
  C225                        0.87      0.89      0.90      0.70         0.52
  C226                        0.90      0.90      0.92      0.70         0.56
  C227                        0.78      1.01      0.78      1.37         0.78
  C262                        0.01      0.01      1.33      0.01         0.01
  
  
  ***************************
  Link Pollutant Load Summary
  ***************************
  
  --------------------------------------------------------------
                                 TSS            TP           TDP
  Link                            kg            kg            kg
  --------------------------------------------------------------
  FID1123                      7.214         0.001         0.026
  FID1139                     76.683         0.040         0.128
  FID1148                    162.831         0.101         0.200
  FID1149                    162.379         0.101         0.200
  FID3364                    218.577         0.128         0.224
  FID3671                     14.537         0.009         0.007
  FID3672                     51.307         0.037         0.031
  FID3762                    158.396         0.123         0.084
  FID3765                    247.957         0.176         0.151
  FID4112                     81.553         0.057         0.060
  FID4186                     23.440         0.019         0.014
  FID4187                     22.601         0.018         0.013
  FID4201                     54.924         0.045         0.035
  FID4202                     53.693         0.044         0.034
  FID4203                      0.000         0.000         0.000
  FID4299                      9.794         0.009         0.004
  FID4372                    376.990         0.796         0.270
  FID4498                    517.562         0.007         0.000
  FID4806                    967.908         0.253         0.220
  FID4807                      0.000         0.001         0.000
  FID4882                      0.000         0.000         0.000
  FID4884                     41.593         0.012         0.111
  FID4914                     41.545         0.032         0.018
  FID4915                      1.921         0.003         0.001
  FID4916                      0.192         0.001         0.001
  FID4917                      0.080         0.000         0.001
  FID5307                     14.619         0.012         0.024
  FID5308                      9.774         0.010         0.003
  FID5312                     13.403         0.011         0.023
  FID5865                    298.310         0.910         1.283
  C9                         188.389         1.077         1.311
  C12                        187.182         1.059         1.287
  C13                        219.467         1.073         1.303
  C14                        143.449         0.706         0.862
  C52                        322.745         0.210         0.226
  C130                        12.199         0.011         0.050
  C131                        11.155         0.011         0.050
  C139                         1.851         0.001         0.001
  C191                       209.098         0.744         0.890
  C193                       209.635         0.724         0.861
  C194                       206.270         0.717         0.858
  C195                       205.729         0.715         0.856
  C196                       194.787         0.740         0.888
  C197                       453.768         0.888         1.003
  C198                       611.859         1.007         1.083
  C199                       614.729         1.006         1.079
  C200                       613.111         1.002         1.074
  C201                       621.443         1.000         1.067
  C202                       631.866         1.003         1.069
  C203                       631.608         1.000         1.064
  C204                       627.450         0.996         1.062
  C205                       767.928         1.079         1.199
  C206                       848.859         1.133         1.256
  C207                       853.433         1.133         1.252
  C208                       872.649         1.142         1.256
  C209                       863.483         1.133         1.250
  C210                       863.987         1.131         1.247
  C211                       862.546         1.129         1.244
  C212                      1120.497         1.306         1.417
  C213                      1125.178         1.309         1.415
  C214                      1126.517         1.307         1.414
  C215                      1219.090         1.366         1.440
  C216                      1167.453         1.326         1.415
  C217                      1222.783         1.368         1.446
  C218                      1543.461         1.574         1.668
  C219                      1549.353         1.575         1.665
  C220                      1554.171         1.572         1.660
  C221                      1595.433         1.598         1.677
  C222                      1715.782         1.671         1.761
  C223                      1875.300         1.768         1.910
  C224                      1894.736         1.772         1.909
  C225                      1901.922         1.774         1.914
  C226                      1900.498         1.769         1.908
  C227                      1978.281         1.797         1.908
  C228                      1958.155         1.790         1.904
  C229                      2179.841         1.948         2.072
  C230                      2187.195         1.954         2.073
  C231                      2212.633         1.962         2.074
  C232                      2197.841         1.948         2.059
  C233                      2260.001         1.973         2.067
  C234                      2216.795         1.947         2.045
  C235                      2233.085         1.960         2.052
  C236                      2608.345         2.754         2.320
  C237                      2627.662         2.767         2.321
  C238                      2876.156         2.937         2.485
  C239                      2864.181         2.924         2.476
  C240                      2855.234         2.915         2.471
  C241                      2864.527         2.924         2.474
  C242                      2883.936         2.940         2.496
  C243                      2964.303         2.999         2.514
  C244                      2940.630         2.969         2.506
  C245                      2942.534         2.970         2.503
  C246                      4008.924         3.273         2.728
  C247                      3968.153         3.247         2.716
  C248                      3995.462         3.257         2.712
  C249                      3957.113         3.232         2.699
  C250                      3962.480         3.238         2.698
  C251                      3963.951         3.237         2.697
  C252                      4166.965         3.362         2.917
  C253                      4181.729         3.371         2.917
  C254                      4193.944         3.374         2.914
  C255                      4189.897         3.368         2.906
  C256                      4687.634         3.365         2.898
  C257                      4670.495         3.367         2.897
  C258                      4673.351         3.366         2.895
  C259                      4716.035         3.374         2.895
  C260                      4675.956         3.362         2.887
  C261                      4724.205         3.375         2.997
  C262                      4788.194         3.379         2.998
  C263                      4735.898         3.371         2.996
  C264                      4763.649         3.401         3.133
  C265                      4985.001         4.249         4.189
  C266                      5018.155         4.264         4.219
  C267                      5008.943         4.255         4.195
  C268                      5047.804         4.271         4.229
  C269                      4982.798         4.236         4.170
  C270                      5072.034         4.264         4.220
  C271                      5077.822         4.257         4.192
  C272                      5076.794         4.262         4.192
  C273                      5178.632         4.356         4.402
  C274                      5166.275         4.348         4.387
  C275                      5146.483         4.341         4.373
  C276                      5130.194         4.336         4.364
  C277                      5110.389         4.327         4.349
  C278                      5102.463         4.323         4.344
  C279                      5102.715         4.320         4.346
  C280                      5121.501         4.317         4.340
  C281                      5149.196         4.347         4.451
  C282                      5159.173         4.351         4.459
  C283                      5166.040         4.360         4.506
  C284                      5168.989         4.361         4.508
  C285                      5172.743         4.364         4.514
  C286                      5167.631         4.363         4.514
  C287                      5159.898         4.360         4.508
  C288                      5147.134         4.354         4.496
  C289                      5140.963         4.351         4.490
  C290                      5139.070         4.349         4.487
  C291                      5142.242         4.341         4.474
  C292                      5213.939         4.367         4.627
  C293                      5200.987         4.364         4.618
  C294                      5199.110         4.365         4.620
  C295                      5183.007         4.358         4.600
  C296                      5186.470         4.359         4.603
  C297                      5192.838         4.362         4.611
  C298                      5187.160         4.362         4.609
  C299                      5170.893         4.357         4.593
  C300                      5177.936         4.361         4.603
  C301                      5157.350         4.352         4.578
  C302                       187.762         1.072         1.304
  C303                       209.793         0.737         0.878
  C353                        78.958         0.019         0.138
  

  Analysis begun on:  Tue Oct 10 17:35:25 2017
  Analysis ended on:  Tue Oct 10 17:35:42 2017
  Total elapsed time: 00:00:17