
  EPA STORM WATER MANAGEMENT MODEL - VERSION 5.1 (Build 5.1.010)
  --------------------------------------------------------------

  WARNING 04: minimum elevation drop used for Conduit C199
  WARNING 04: minimum elevation drop used for Conduit C200
  WARNING 02: maximum depth increased for Node FID1955
  WARNING 02: maximum depth increased for Node FID1960
  WARNING 02: maximum depth increased for Node FID1965
  WARNING 02: maximum depth increased for Node FID1968
  WARNING 02: maximum depth increased for Node FID2244
  WARNING 02: maximum depth increased for Node FID2442
  WARNING 02: maximum depth increased for Node FID2446
  WARNING 02: maximum depth increased for Node FID5504
  WARNING 02: maximum depth increased for Node FID5527
  WARNING 02: maximum depth increased for Node AFID6926
  WARNING 02: maximum depth increased for Node AFID7376
  
  *********************************************************
  NOTE: The summary statistics displayed in this report are
  based on results found at every computational time step,  
  not just on results from each reporting time step.
  *********************************************************
  
  ****************
  Analysis Options
  ****************
  Flow Units ............... CMS
  Process Models:
    Rainfall/Runoff ........ YES
    RDII ................... NO
    Snowmelt ............... NO
    Groundwater ............ NO
    Flow Routing ........... YES
    Ponding Allowed ........ YES
    Water Quality .......... YES
  Infiltration Method ...... GREEN_AMPT
  Flow Routing Method ...... DYNWAVE
  Starting Date ............ MAY-06-2016 15:00:00
  Ending Date .............. MAY-07-2016 00:00:00
  Antecedent Dry Days ...... 0.0
  Report Time Step ......... 00:01:00
  Wet Time Step ............ 00:01:00
  Dry Time Step ............ 01:00:00
  Routing Time Step ........ 5.00 sec
  Variable Time Step ....... YES
  Maximum Trials ........... 8
  Number of Threads ........ 3
  Head Tolerance ........... 0.001500 m
  
  
  **************************        Volume         Depth
  Runoff Quantity Continuity     hectare-m            mm
  **************************     ---------       -------
  Total Precipitation ......         2.583         6.709
  Evaporation Loss .........         0.000         0.000
  Infiltration Loss ........         1.251         3.249
  Surface Runoff ...........         1.003         2.604
  Final Storage ............         0.331         0.861
  Continuity Error (%) .....        -0.068
  
  
  **************************           TSS            TP           TDP
  Runoff Quality Continuity             kg            kg            kg
  **************************    ----------    ----------    ----------
  Initial Buildup ..........         0.000         0.000         0.000
  Surface Buildup ..........      8394.702         4.791        13.340
  Wet Deposition ...........         0.000         0.000         0.000
  Sweeping Removal .........         0.000         0.000         0.000
  Infiltration Loss ........         0.000         0.000         0.000
  BMP Removal ..............         0.477         0.000         0.001
  Surface Runoff ...........      4766.988         3.112         6.548
  Remaining Buildup ........      3627.237         1.678         6.791
  Continuity Error (%) .....         0.000         0.000         0.000
  
  
  **************************        Volume        Volume
  Flow Routing Continuity        hectare-m      10^6 ltr
  **************************     ---------     ---------
  Dry Weather Inflow .......         0.000         0.000
  Wet Weather Inflow .......         1.002        10.025
  Groundwater Inflow .......         0.000         0.000
  RDII Inflow ..............         0.000         0.000
  External Inflow ..........         1.384        13.843
  External Outflow .........         1.857        18.566
  Flooding Loss ............         0.000         0.000
  Evaporation Loss .........         0.000         0.000
  Exfiltration Loss ........         0.000         0.000
  Initial Stored Volume ....         0.000         0.000
  Final Stored Volume ......         0.536         5.357
  Continuity Error (%) .....        -0.231
  
  
  **************************           TSS            TP           TDP
  Quality Routing Continuity            kg            kg            kg
  **************************    ----------    ----------    ----------
  Dry Weather Inflow .......         0.000         0.000         0.000
  Wet Weather Inflow .......      4763.624         3.109         6.539
  Groundwater Inflow .......         0.000         0.000         0.000
  RDII Inflow ..............         0.000         0.000         0.000
  External Inflow ..........       137.985         1.039         1.284
  External Outflow .........      4804.902         3.768         7.356
  Flooding Loss ............         0.000         0.000         0.000
  Exfiltration Loss ........         0.000         0.000         0.000
  Mass Reacted .............         0.000         0.000         0.000
  Initial Stored Mass ......         0.000         0.000         0.000
  Final Stored Mass ........        39.157         0.351         0.496
  Continuity Error (%) .....         1.174         0.671        -0.369
  
  
  *************************
  Highest Continuity Errors
  *************************
  Node FID2824 (1.73%)
  Node J72 (1.33%)
  Node FID2449 (1.23%)
  Node J19 (1.20%)
  Node J81 (1.16%)
  
  
  ***************************
  Time-Step Critical Elements
  ***************************
  Link C241 (92.65%)
  Link C14 (6.52%)
  
  
  ********************************
  Highest Flow Instability Indexes
  ********************************
  All links are stable.
  
  
  *************************
  Routing Time Step Summary
  *************************
  Minimum Time Step           :     0.32 sec
  Average Time Step           :     0.93 sec
  Maximum Time Step           :     5.00 sec
  Percent in Steady State     :     0.00
  Average Iterations per Step :     2.01
  Percent Not Converging      :     0.03
  
  
  ***************************
  Subcatchment Runoff Summary
  ***************************
  
  --------------------------------------------------------------------------------------------------------
                            Total      Total      Total      Total      Total       Total     Peak  Runoff
                           Precip      Runon       Evap      Infil     Runoff      Runoff   Runoff   Coeff
  Subcatchment                 mm         mm         mm         mm         mm    10^6 ltr      CMS
  --------------------------------------------------------------------------------------------------------
  S0                         5.84       0.00       0.00       5.05       0.58        0.00     0.00   0.099
  S1                         5.84       0.00       0.00       2.59       2.36        0.23     0.08   0.404
  S2                         6.35       0.00       0.00       1.94       3.30        0.57     0.19   0.519
  S3                         5.84       0.00       0.00       3.82       1.48        0.05     0.04   0.254
  S4                         5.84       0.00       0.00       2.79       2.23        0.22     0.18   0.381
  S6                         6.35       0.00       0.00       1.03       3.98        0.07     0.03   0.626
  S7                         6.35       0.00       0.00       1.46       3.28        1.28     0.37   0.517
  S8                         6.35       0.00       0.00       1.03       3.99        0.00     0.00   0.628
  S9                         6.35       0.00       0.00       1.75       3.45        0.00     0.00   0.543
  S10                        6.35       0.00       0.00       1.87       3.36        0.01     0.00   0.530
  S11                        6.35       0.00       0.00       4.99       1.02        0.00     0.00   0.161
  S12                        6.35       0.00       0.00       2.10       3.19        0.00     0.00   0.503
  S13                        6.35       0.00       0.00       2.35       2.99        0.23     0.08   0.471
  S14                        6.35       0.00       0.00       4.44       1.43        0.01     0.00   0.225
  S16                        6.35       0.00       0.00       2.03       1.71        0.10     0.02   0.270
  S17                        6.35       0.00       0.00       2.04       3.22        0.62     0.21   0.507
  S18                        6.35       0.00       0.00       1.39       3.73        0.00     0.00   0.587
  S19                        6.35       0.00       0.00       3.46       2.16        0.05     0.02   0.341
  S20                        6.35       0.00       0.00       2.20       3.11        0.02     0.01   0.490
  S21                        6.35       0.00       0.00       4.56       1.72        0.92     0.21   0.270
  S22                        6.35       0.00       0.00       1.69       3.50        0.00     0.00   0.551
  S23                        6.35       0.00       0.00       3.82       1.90        0.03     0.01   0.299
  S24                        6.35       0.00       0.00       3.61       2.05        0.04     0.01   0.323
  S25                        6.35       0.00       0.00       2.42       2.94        0.04     0.01   0.463
  S27                        6.35       0.00       0.00       2.77       2.69        0.01     0.01   0.423
  S28                        5.84       0.00       0.00       5.83       0.01        0.00     0.00   0.001
  S29                        5.84       0.00       0.00       5.80       0.03        0.00     0.00   0.006
  S30                        6.35       0.00       0.00       6.33       0.02        0.00     0.00   0.003
  S31                        6.35       0.00       0.00       6.34       0.01        0.00     0.00   0.001
  S32                        6.35       0.00       0.00       4.67       1.27        0.01     0.00   0.200
  S33                        6.35       0.00       0.00       1.51       3.63        0.04     0.02   0.571
  S34                        6.35       0.00       0.00       3.04       2.22        0.78     0.25   0.349
  S35                        6.35       0.00       0.00       3.59       2.07        0.01     0.00   0.326
  S36                        6.35       0.00       0.00       5.05       0.98        0.01     0.01   0.155
  S37                        6.35       0.00       0.00       1.83       3.39        0.02     0.01   0.533
  S39                        6.35       0.00       0.00       3.74       1.95        0.29     0.10   0.308
  S40                        6.35       0.00       0.00       4.41       1.45        0.03     0.01   0.229
  S41                        6.35       0.00       0.00       2.18       3.12        0.42     0.15   0.492
  S42                        6.35       0.00       0.00       2.58       2.82        0.29     0.10   0.445
  S43                        6.35       0.00       0.00       4.73       1.21        0.02     0.01   0.191
  S44                        6.35       0.00       0.00       2.65       2.77        0.63     0.21   0.436
  S45                        8.13       0.00       0.00       4.52       2.96        0.00     0.00   0.364
  S47                        8.13       0.00       0.00       3.44       3.81        0.16     0.14   0.469
  S48                        8.13       0.00       0.00       4.10       3.31        0.01     0.01   0.407
  S49                        8.13       0.00       0.00       3.60       3.65        0.68     0.50   0.449
  S51                        8.13       0.00       0.00       6.97       0.95        0.01     0.01   0.117
  S52                        8.13       0.00       0.00       3.92       3.42        0.23     0.20   0.421
  S53                        8.13       0.00       0.00       3.77       3.52        0.49     0.38   0.433
  S54                        8.13       0.00       0.00       4.83       2.65        0.25     0.07   0.326
  S55                        8.13       0.00       0.00       3.93       3.37        0.55     0.16   0.414
  S56                        8.13       0.00       0.00       5.87       1.83        0.00     0.00   0.225
  S57                        8.13       0.00       0.00       3.40       3.80        0.04     0.01   0.468
  S58                        8.13       0.00       0.00       4.27       3.10        0.13     0.04   0.381
  S59                        8.13       0.00       0.00       6.99       0.92        0.02     0.01   0.113
  S60                        8.13       0.00       0.00       5.76       1.90        0.05     0.01   0.234
  S61                        8.13       0.00       0.00       7.14       0.79        0.01     0.00   0.097
  S62                        8.13       0.00       0.00       6.65       1.20        0.03     0.03   0.148
  S63                        6.35       0.00       0.00       5.33       0.77        0.01     0.01   0.121
  S64                        6.35       0.00       0.00       2.84       2.64        0.04     0.02   0.415
  S65                        6.35       0.00       0.00       4.21       1.60        0.27     0.09   0.252
  
  
  ****************************
  Subcatchment Washoff Summary
  ****************************
  
  --------------------------------------------------------------
                                 TSS            TP           TDP
  Subcatchment                    kg            kg            kg
  --------------------------------------------------------------
  S0                           0.376         0.000         0.001
  S1                          33.735         0.007         0.146
  S2                          99.332         0.042         0.314
  S3                          16.103         0.007         0.048
  S4                          47.919         0.023         0.170
  S6                           5.069         0.001         0.021
  S7                         457.727         1.171         0.477
  S8                           0.264         0.000         0.001
  S9                           0.305         0.000         0.001
  S10                          3.173         0.003         0.009
  S11                          0.312         0.000         0.001
  S12                          0.173         0.000         0.000
  S13                         24.814         0.006         0.093
  S14                          8.178         0.003         0.019
  S16                         51.748         0.062         0.050
  S17                        120.599         0.047         0.373
  S18                          0.317         0.000         0.001
  S19                         24.428         0.007         0.062
  S20                          6.656         0.004         0.017
  S21                       1336.227         0.969         0.384
  S22                          2.089         0.002         0.006
  S23                         20.713         0.001         0.044
  S24                         12.270         0.006         0.038
  S25                         14.317         0.001         0.033
  S27                          7.406         0.004         0.019
  S28                          0.000         0.000         0.000
  S29                          0.000         0.000         0.000
  S30                          0.000         0.000         0.000
  S31                          0.000         0.000         0.000
  S32                          4.401         0.000         0.010
  S33                         11.138         0.007         0.032
  S34                       1039.349         0.244         0.266
  S35                          4.414         0.002         0.011
  S36                         11.916         0.000         0.026
  S37                          6.934         0.003         0.017
  S39                        131.198         0.034         0.345
  S40                         27.025         0.002         0.060
  S41                         88.476         0.048         0.277
  S42                         73.842         0.034         0.231
  S43                         21.697         0.000         0.048
  S44                        172.273         0.068         0.515
  S45                          0.581         0.000         0.001
  S47                         37.838         0.018         0.101
  S48                          3.344         0.002         0.009
  S49                        149.379         0.056         0.419
  S51                         11.936         0.000         0.024
  S52                         50.121         0.023         0.147
  S53                         81.592         0.044         0.263
  S54                        102.480         0.030         0.261
  S55                        140.033         0.043         0.383
  S56                          0.046         0.000         0.000
  S57                          7.587         0.000         0.020
  S58                         30.535         0.017         0.092
  S59                         20.399         0.009         0.047
  S60                         32.111         0.002         0.069
  S61                         10.048         0.002         0.019
  S62                         29.227         0.000         0.061
  S63                         13.291         0.000         0.026
  S64                         16.901         0.000         0.036
  S65                        142.628         0.056         0.403
  --------------------------------------------------------------
  System                    4766.988         3.112         6.548
  
  
  ******************
  Node Depth Summary
  ******************
  
  ---------------------------------------------------------------------------------
                                 Average  Maximum  Maximum  Time of Max    Reported
                                   Depth    Depth      HGL   Occurrence   Max Depth
  Node                 Type       Meters   Meters   Meters  days hr:min      Meters
  ---------------------------------------------------------------------------------
  FID1936              JUNCTION     0.15     0.41  1376.71     0  04:05        0.13
  FID1955              JUNCTION     0.17     0.35  1376.27     0  04:15        0.11
  FID1960              JUNCTION     0.15     0.28  1376.14     0  04:15        0.09
  FID1965              JUNCTION     0.15     0.27  1376.57     0  04:15        0.08
  FID1968              JUNCTION     0.14     0.21  1376.61     0  04:14        0.07
  FID2239              JUNCTION     0.15     0.30  1374.81     0  03:30        0.09
  FID2241              JUNCTION     0.13     0.20  1373.33     0  04:05        0.06
  FID2242              JUNCTION     0.13     0.22  1374.26     0  04:05        0.07
  FID2244              JUNCTION     0.13     0.20  1374.56     0  03:30        0.06
  FID2440              JUNCTION     0.38     0.62  1374.87     0  04:10        0.19
  FID2442              JUNCTION     0.00     0.00  1375.27     0  00:00        0.00
  FID2446              JUNCTION     0.16     0.62  1376.42     0  04:05        0.19
  FID2447              JUNCTION     0.15     0.51  1376.21     0  04:05        0.15
  FID2455              JUNCTION     0.29     0.57  1374.56     0  04:20        0.17
  FID2711              JUNCTION     0.13     0.25  1370.43     0  03:50        0.08
  FID2719              JUNCTION     0.17     0.91  1371.01     0  04:05        0.28
  FID2720              JUNCTION     0.16     0.40  1370.60     0  04:05        0.12
  FID2824              JUNCTION     0.12     0.18  1371.46     0  03:55        0.06
  FID2827              JUNCTION     0.13     0.24  1371.54     0  03:55        0.07
  FID2828              JUNCTION     0.13     0.23  1371.55     0  04:10        0.07
  FID2832              JUNCTION     0.16     0.32  1370.92     0  04:10        0.10
  FID2833              JUNCTION     0.21     0.50  1371.12     0  04:10        0.15
  FID2839              JUNCTION     0.19     0.37  1371.57     0  04:20        0.11
  FID2873              JUNCTION     0.16     0.31  1371.01     0  03:55        0.09
  FID2964              JUNCTION     0.17     0.34  1371.12     0  04:36        0.10
  FID2965              JUNCTION     0.42     0.86  1371.12     0  04:36        0.26
  FID4584              JUNCTION     0.13     0.31  1371.65     0  04:10        0.09
  FID5068              JUNCTION     0.13     0.20  1375.58     0  03:30        0.06
  FID5072              JUNCTION     0.47     0.80  1374.09     0  04:20        0.24
  FID5140              JUNCTION     0.16     0.32  1373.54     0  04:05        0.10
  FID5435              JUNCTION     0.16     0.26  1373.01     0  04:05        0.08
  FID5437              JUNCTION     0.12     0.18  1373.13     0  03:30        0.05
  FID5503              JUNCTION     0.12     0.16  1371.49     0  03:54        0.05
  FID5504              JUNCTION     0.15     0.26  1371.62     0  04:09        0.08
  FID5527              JUNCTION     0.14     0.22  1372.72     0  04:10        0.07
  FID5568              JUNCTION     0.46     0.83  1373.22     0  04:23        0.25
  FID5784              JUNCTION     0.47     0.84  1372.84     0  04:25        0.26
  FID5785              JUNCTION     0.14     0.25  1374.68     0  04:05        0.08
  AFID6926             JUNCTION     0.15     0.26  1370.06     0  04:15        0.08
  AFID7360             JUNCTION     0.47     0.94  1371.07     0  04:36        0.29
  AFID7363             JUNCTION     0.46     0.93  1371.10     0  04:36        0.28
  AFID7376             JUNCTION     0.19     0.42  1371.65     0  04:10        0.13
  AFID7377             JUNCTION     0.39     0.74  1371.42     0  04:33        0.23
  AFID7705             JUNCTION     0.48     0.59  1375.56     0  04:15        0.18
  AFID7706             JUNCTION     0.54     0.65  1375.56     0  04:15        0.20
  AFID7792             JUNCTION     0.18     0.40  1375.20     0  04:05        0.12
  AFID8223             JUNCTION     0.47     0.84  1372.84     0  04:25        0.26
  J1                   JUNCTION     0.70     0.73  1375.72     0  04:15        0.22
  FID4901              JUNCTION     0.44     0.52  1375.59     0  04:15        0.16
  J9                   JUNCTION     0.59     0.62  1375.71     0  04:15        0.19
  J11                  JUNCTION     0.44     0.47  1375.68     0  04:16        0.14
  J12                  JUNCTION     0.43     0.50  1375.62     0  04:15        0.15
  J13                  JUNCTION     0.43     0.52  1375.60     0  04:15        0.16
  FID4902              JUNCTION     0.45     0.54  1375.59     0  04:15        0.17
  J14                  JUNCTION     0.36     0.53  1375.44     0  04:05        0.16
  J15                  JUNCTION     0.34     0.55  1375.21     0  04:06        0.17
  J16                  JUNCTION     0.35     0.55  1375.20     0  04:06        0.17
  FID2449              JUNCTION     0.39     0.63  1374.95     0  04:10        0.19
  J17                  JUNCTION     0.28     0.57  1374.54     0  04:20        0.17
  J19                  JUNCTION     0.41     0.75  1374.29     0  04:22        0.23
  FID5069              JUNCTION     0.50     0.83  1374.08     0  04:21        0.25
  FID5139              JUNCTION     0.47     0.84  1373.20     0  04:22        0.26
  J24                  JUNCTION     0.47     0.84  1373.21     0  04:23        0.26
  FID4984              JUNCTION     0.49     0.86  1372.82     0  04:25        0.26
  FID2669              JUNCTION     0.35     0.72  1369.16     0  04:38        0.22
  FID2712              JUNCTION     0.37     0.77  1369.97     0  04:36        0.24
  FID2718              JUNCTION     0.38     0.79  1370.03     0  04:36        0.24
  FID2838              JUNCTION     0.55     1.02  1370.96     0  04:35        0.31
  FID2825              JUNCTION     0.60     1.09  1371.00     0  04:35        0.33
  FID2823              JUNCTION     0.64     1.15  1371.02     0  04:36        0.35
  FID5505              JUNCTION     0.54     1.03  1371.05     0  04:36        0.31
  FID5436              JUNCTION     0.50     0.86  1372.18     0  04:30        0.26
  FID5438              JUNCTION     0.43     0.79  1372.22     0  04:30        0.24
  J49                  JUNCTION     0.47     0.56  1375.58     0  04:15        0.17
  J50                  JUNCTION     0.51     0.61  1375.57     0  04:15        0.19
  J51                  JUNCTION     0.56     0.67  1375.56     0  04:15        0.20
  J52                  JUNCTION     0.57     0.68  1375.56     0  04:15        0.21
  J53                  JUNCTION     0.36     0.52  1375.44     0  04:05        0.16
  J54                  JUNCTION     0.37     0.51  1375.46     0  04:05        0.15
  J55                  JUNCTION     0.41     0.52  1375.55     0  04:15        0.16
  J56                  JUNCTION     0.39     0.50  1375.52     0  04:09        0.15
  J57                  JUNCTION     0.37     0.48  1375.51     0  04:07        0.15
  J58                  JUNCTION     0.37     0.50  1375.47     0  04:06        0.15
  FID1935              JUNCTION     0.37     0.53  1375.42     0  04:05        0.16
  J59                  JUNCTION     0.37     0.53  1375.40     0  04:05        0.16
  J60                  JUNCTION     0.36     0.52  1375.35     0  04:06        0.16
  J61                  JUNCTION     0.34     0.52  1375.29     0  04:07        0.16
  J62                  JUNCTION     0.33     0.52  1375.27     0  04:07        0.16
  J63                  JUNCTION     0.35     0.55  1375.23     0  04:06        0.17
  J64                  JUNCTION     0.33     0.54  1375.16     0  04:07        0.17
  J65                  JUNCTION     0.30     0.52  1375.10     0  04:08        0.16
  J66                  JUNCTION     0.38     0.62  1374.83     0  04:10        0.19
  J67                  JUNCTION     0.38     0.61  1374.76     0  04:11        0.19
  J68                  JUNCTION     0.36     0.60  1374.66     0  04:12        0.18
  J69                  JUNCTION     0.49     0.79  1374.52     0  04:20        0.24
  J70                  JUNCTION     0.47     0.78  1374.43     0  04:21        0.24
  J71                  JUNCTION     0.46     0.77  1374.36     0  04:21        0.23
  J72                  JUNCTION     0.48     0.80  1374.15     0  04:22        0.24
  J73                  JUNCTION     0.50     0.83  1374.05     0  04:21        0.25
  J74                  JUNCTION     0.50     0.82  1373.81     0  04:24        0.25
  J75                  JUNCTION     0.50     0.82  1373.67     0  04:26        0.25
  J76                  JUNCTION     0.47     0.84  1373.18     0  04:23        0.26
  J77                  JUNCTION     0.47     0.85  1373.05     0  04:23        0.26
  J78                  JUNCTION     0.47     0.84  1372.91     0  04:24        0.26
  J79                  JUNCTION     0.47     0.84  1372.85     0  04:24        0.26
  J80                  JUNCTION     0.40     0.76  1372.25     0  04:31        0.23
  J81                  JUNCTION     0.48     0.83  1371.83     0  04:33        0.25
  J82                  JUNCTION     0.48     0.82  1371.75     0  04:34        0.25
  J83                  JUNCTION     0.40     0.77  1371.58     0  04:34        0.24
  J84                  JUNCTION     0.37     0.70  1371.34     0  04:34        0.21
  J85                  JUNCTION     0.37     0.73  1371.25     0  04:35        0.22
  J86                  JUNCTION     0.39     0.80  1371.17     0  04:36        0.24
  J87                  JUNCTION     0.45     0.91  1371.10     0  04:36        0.28
  J88                  JUNCTION     0.52     1.01  1371.05     0  04:36        0.31
  J89                  JUNCTION     0.56     1.05  1371.04     0  04:36        0.32
  J90                  JUNCTION     0.52     0.99  1370.94     0  04:35        0.30
  J91                  JUNCTION     0.52     0.99  1370.88     0  04:35        0.30
  J92                  JUNCTION     0.52     0.99  1370.83     0  04:35        0.30
  J93                  JUNCTION     0.52     0.99  1370.71     0  04:35        0.30
  J94                  JUNCTION     0.52     0.99  1370.65     0  04:35        0.30
  J95                  JUNCTION     0.52     0.99  1370.62     0  04:35        0.30
  J96                  JUNCTION     0.51     0.98  1370.54     0  04:36        0.30
  J97                  JUNCTION     0.51     0.97  1370.47     0  04:36        0.30
  J98                  JUNCTION     0.50     0.96  1370.40     0  04:36        0.29
  J99                  JUNCTION     0.49     0.94  1370.34     0  04:37        0.29
  J100                 JUNCTION     0.47     0.92  1370.28     0  04:37        0.28
  J101                 JUNCTION     0.45     0.89  1370.21     0  04:37        0.27
  J102                 JUNCTION     0.38     0.79  1370.06     0  04:36        0.24
  J103                 JUNCTION     0.38     0.78  1370.01     0  04:36        0.24
  J104                 JUNCTION     0.37     0.76  1369.93     0  04:36        0.23
  J105                 JUNCTION     0.37     0.75  1369.87     0  04:36        0.23
  J106                 JUNCTION     0.35     0.72  1369.80     0  04:36        0.22
  J107                 JUNCTION     0.35     0.72  1369.65     0  04:37        0.22
  J108                 JUNCTION     0.35     0.72  1369.52     0  04:37        0.22
  J109                 JUNCTION     0.35     0.72  1369.40     0  04:38        0.22
  J110                 JUNCTION     0.35     0.72  1369.30     0  04:38        0.22
  J111                 JUNCTION     0.35     0.72  1369.20     0  04:38        0.22
  J112                 JUNCTION     0.35     0.72  1369.05     0  04:39        0.22
  J113                 JUNCTION     0.35     0.72  1368.95     0  04:39        0.22
  J114                 JUNCTION     0.35     0.72  1368.84     0  04:39        0.22
  J115                 JUNCTION     0.35     0.72  1368.78     0  04:40        0.22
  J116                 JUNCTION     0.35     0.72  1368.71     0  04:40        0.22
  J117                 JUNCTION     0.35     0.72  1368.60     0  04:40        0.22
  J118                 JUNCTION     0.35     0.71  1368.49     0  04:40        0.22
  J119                 JUNCTION     0.36     0.71  1368.41     0  04:40        0.22
  J120                 JUNCTION     0.37     0.69  1368.29     0  04:40        0.21
  FID2451              JUNCTION     0.38     0.61  1374.90     0  04:10        0.19
  J121                 JUNCTION     0.38     0.75  1371.49     0  04:33        0.23
  J122                 JUNCTION     0.38     0.74  1371.46     0  04:33        0.23
  FID3706              JUNCTION     0.52     0.99  1370.73     0  04:35        0.30
  FID2831              JUNCTION     0.52     0.99  1370.61     0  04:35        0.30
  FID2689              OUTFALL      0.26     0.51  1368.01     0  04:41        0.16
  
  
  *******************
  Node Inflow Summary
  *******************
  
  -------------------------------------------------------------------------------------------------
                                  Maximum  Maximum                  Lateral       Total        Flow
                                  Lateral    Total  Time of Max      Inflow      Inflow     Balance
                                   Inflow   Inflow   Occurrence      Volume      Volume       Error
  Node                 Type           CMS      CMS  days hr:min    10^6 ltr    10^6 ltr     Percent
  -------------------------------------------------------------------------------------------------
  FID1936              JUNCTION     0.199    0.199     0  04:05       0.229       0.229       0.071
  FID1955              JUNCTION     0.164    0.164     0  04:15       0.549       0.549       0.031
  FID1960              JUNCTION     0.075    0.075     0  04:15        0.25        0.25       0.067
  FID1965              JUNCTION     0.038    0.038     0  04:15       0.126       0.126       0.138
  FID1968              JUNCTION     0.011    0.011     0  04:15       0.038       0.038       0.460
  FID2239              JUNCTION     0.014    0.014     0  03:30      0.0394      0.0394       1.406
  FID2241              JUNCTION     0.000    0.013     0  04:05           0       0.037       0.467
  FID2242              JUNCTION     0.013    0.013     0  04:05      0.0372      0.0372       0.490
  FID2244              JUNCTION     0.007    0.007     0  03:30      0.0144      0.0144       1.223
  FID2440              JUNCTION     0.000    1.288     0  04:08           0        15.3       0.227
  FID2442              JUNCTION     0.000    0.000     0  00:00           0           0       0.000 ltr
  FID2446              JUNCTION     0.143    0.143     0  04:05       0.162       0.162       1.027
  FID2447              JUNCTION     0.000    0.137     0  04:05           0       0.161      -0.128
  FID2455              JUNCTION     0.098    1.332     0  04:11       0.287        15.4       0.209
  FID2711              JUNCTION     0.000    0.043     0  04:05           0      0.0476       0.495
  FID2719              JUNCTION     0.181    0.181     0  04:05       0.222       0.222       0.223
  FID2720              JUNCTION     0.044    0.044     0  04:05      0.0479      0.0479       0.437
  FID2824              JUNCTION     0.000    0.004     0  04:10    0.000655      0.0098       1.759
  FID2827              JUNCTION     0.000    0.003     0  04:10    0.000742     0.00924       1.013
  FID2828              JUNCTION     0.003    0.003     0  04:10     0.00876     0.00876       3.031
  FID2832              JUNCTION     0.000    0.191     0  04:10           0       0.568       0.053
  FID2833              JUNCTION     0.191    0.191     0  04:10       0.569       0.569       0.044
  FID2839              JUNCTION     0.367    0.367     0  04:20        1.28        1.28       0.031
  FID2873              JUNCTION     0.025    0.025     0  04:10      0.0747      0.0747       0.820
  FID2964              JUNCTION     0.023    0.023     0  04:10      0.0954      0.0954       0.169
  FID2965              JUNCTION     0.000    1.843     0  04:34           0          17       0.269
  FID4584              JUNCTION     0.000    0.002     0  03:32           0    0.000914      17.554
  FID5068              JUNCTION     0.008    0.008     0  03:30      0.0177      0.0177       0.988
  FID5072              JUNCTION     0.100    1.460     0  04:20       0.289        15.6       0.197
  FID5140              JUNCTION     0.254    0.254     0  04:05       0.784       0.784       0.014
  FID5435              JUNCTION     0.210    0.210     0  04:05       0.919       0.919       0.020
  FID5437              JUNCTION     0.002    0.002     0  03:30     0.00483     0.00483       3.741
  FID5503              JUNCTION     0.000    0.000     0  03:27    0.000701    0.000701      32.797
  FID5504              JUNCTION     0.076    0.076     0  04:10       0.226       0.226       0.127
  FID5527              JUNCTION     0.016    0.016     0  04:10      0.0467      0.0467       0.375
  FID5568              JUNCTION     0.004    1.435     0  04:26     0.00691        15.3       0.695
  FID5784              JUNCTION     0.000    1.658     0  04:22           0        16.1       0.096
  FID5785              JUNCTION     0.000    0.014     0  04:05           0      0.0388       0.310
  AFID6926             JUNCTION     0.076    0.076     0  04:15       0.231       0.231       0.076
  AFID7360             JUNCTION     0.000    1.842     0  04:36    0.000423        16.9       0.196
  AFID7363             JUNCTION     0.000    1.842     0  04:36           0        16.9       0.097
  AFID7376             JUNCTION     0.205    0.205     0  04:10       0.618       0.619      -0.003
  AFID7377             JUNCTION     0.000    1.851     0  04:30           0          17       0.106
  AFID7705             JUNCTION     0.000    0.730     0  04:15           0        14.1       0.267
  AFID7706             JUNCTION     0.000    0.655     0  04:16           0        13.9       0.259
  AFID7792             JUNCTION     0.210    0.210     0  04:05       0.625       0.625       0.024
  AFID8223             JUNCTION     0.000    1.649     0  04:23           0        16.1       0.021
  J1                   JUNCTION     0.667    0.667     0  04:15          21          21       0.151
  FID4901              JUNCTION     0.000    0.487     0  04:19           0        13.8       0.234
  J9                   JUNCTION     0.000    0.667     0  04:15           0          21       0.303
  J11                  JUNCTION     0.000    0.666     0  04:15           0        20.9       0.523
  J12                  JUNCTION     0.007    0.672     0  04:20      0.0233        20.8       0.571
  J13                  JUNCTION    -0.220    0.680     0  04:20       -7.13        20.7      -0.191
  FID4902              JUNCTION     0.000    0.496     0  04:15           0        13.8       0.367
  J14                  JUNCTION     0.381    0.910     0  04:05       0.491        14.3       0.192
  J15                  JUNCTION     0.495    1.267     0  04:05       0.684        14.9       0.157
  J16                  JUNCTION     0.008    1.252     0  04:05     0.00955        14.9       0.158
  FID2449              JUNCTION     0.001    1.150     0  04:08     0.00138        14.8       1.246
  J17                  JUNCTION     0.146    1.415     0  04:11       0.425        15.8       0.100
  J19                  JUNCTION     0.019    1.399     0  04:21       0.037        15.6       1.214
  FID5069              JUNCTION     0.000    1.462     0  04:20           0        15.6       0.177
  FID5139              JUNCTION     0.000    1.613     0  04:21           0          16       0.051
  J24                  JUNCTION     0.018    1.446     0  04:25      0.0421        15.2       0.079
  FID4984              JUNCTION     0.000    1.663     0  04:22           0        16.1       0.790
  FID2669              JUNCTION     0.000    2.190     0  04:38           0        18.7       0.063
  FID2712              JUNCTION     0.000    2.168     0  04:35           0        18.6       0.079
  FID2718              JUNCTION     0.000    2.156     0  04:35           0        18.6       0.055
  FID2838              JUNCTION     0.000    2.061     0  04:33           0        18.1       0.167
  FID2825              JUNCTION     0.000    1.863     0  04:38           0        16.9       0.304
  FID2823              JUNCTION     0.000    1.860     0  04:38           0          17       0.467
  FID5505              JUNCTION     0.000    1.857     0  04:36           0          17       0.124
  FID5436              JUNCTION     0.000    1.788     0  04:30           0        16.8       0.774
  FID5438              JUNCTION     0.000    1.654     0  04:31           0        15.9       0.144
  J49                  JUNCTION     0.000    0.499     0  04:19           0        13.7       0.587
  J50                  JUNCTION     0.000    0.506     0  04:19    0.000281        13.6       1.029
  J51                  JUNCTION     0.000    0.516     0  04:18           0        13.5       0.829
  J52                  JUNCTION     0.000    0.530     0  04:33           0        13.4       0.246
  J53                  JUNCTION     0.000    0.746     0  04:15           0        13.8       0.209
  J54                  JUNCTION     0.000    0.741     0  04:15           0        13.9       0.309
  J55                  JUNCTION     0.000    0.730     0  04:15           0        14.1       0.296
  J56                  JUNCTION     0.000    0.730     0  04:15           0          14       0.318
  J57                  JUNCTION     0.000    0.732     0  04:15           0          14       0.397
  J58                  JUNCTION     0.002    0.736     0  04:15     0.00684        13.9       0.424
  FID1935              JUNCTION     0.000    1.090     0  04:05           0        14.5       0.246
  J59                  JUNCTION     0.000    1.067     0  04:05           0        14.5       0.341
  J60                  JUNCTION     0.008    1.030     0  04:05     0.00961        14.4       0.534
  J61                  JUNCTION     0.000    0.960     0  04:06           0        14.4       0.359
  J62                  JUNCTION     0.000    0.949     0  04:07           0        14.3       0.161
  J63                  JUNCTION     0.000    0.953     0  04:07           0        14.3       0.164
  J64                  JUNCTION     0.000    1.234     0  04:05           0        14.9       0.163
  J65                  JUNCTION     0.027    1.234     0  04:05      0.0306        14.9       0.947
  J66                  JUNCTION     0.000    1.283     0  04:09           0        15.3       0.286
  J67                  JUNCTION     0.000    1.278     0  04:10           0        15.3       0.426
  J68                  JUNCTION     0.011    1.277     0  04:10      0.0234        15.2       0.462
  J69                  JUNCTION     0.000    1.413     0  04:11           0        15.8       0.448
  J70                  JUNCTION     0.006    1.408     0  04:12      0.0118        15.8       0.573
  J71                  JUNCTION     0.000    1.400     0  04:21           0        15.7       0.413
  J72                  JUNCTION     0.011    1.394     0  04:22      0.0318        15.5       1.352
  J73                  JUNCTION     0.000    1.459     0  04:20           0        15.5       0.392
  J74                  JUNCTION     0.000    1.451     0  04:20           0        15.5       0.576
  J75                  JUNCTION     0.006    1.442     0  04:22      0.0123        15.4       0.894
  J76                  JUNCTION     0.000    1.612     0  04:22           0          16       0.211
  J77                  JUNCTION     0.091    1.668     0  04:20        0.27        16.2       0.388
  J78                  JUNCTION     0.000    1.658     0  04:21           0        16.1       0.291
  J79                  JUNCTION     0.000    1.651     0  04:23           0        16.1       0.106
  J80                  JUNCTION     0.014    1.657     0  04:26      0.0311          16       0.649
  J81                  JUNCTION     0.002    1.791     0  04:30     0.00546        16.8       1.177
  J82                  JUNCTION     0.000    1.779     0  04:32           0        16.6       0.465
  J83                  JUNCTION     0.000    1.777     0  04:34           0        16.5       0.346
  J84                  JUNCTION     0.000    1.849     0  04:30           0          17       0.183
  J85                  JUNCTION     0.000    1.845     0  04:31           0          17       0.342
  J86                  JUNCTION     0.000    1.839     0  04:33           0        16.9       0.353
  J87                  JUNCTION     0.003    1.842     0  04:35     0.00838        16.9       0.150
  J88                  JUNCTION     0.000    1.842     0  04:37           0        16.9       0.227
  J89                  JUNCTION     0.000    1.858     0  04:37           0          17       0.343
  J90                  JUNCTION     0.000    2.061     0  04:34           0        18.1       0.118
  J91                  JUNCTION     0.000    2.060     0  04:34           0        18.1       0.165
  J92                  JUNCTION     0.000    2.059     0  04:35    3.46e-06          18       0.204
  J93                  JUNCTION     0.000    2.064     0  04:35           0        18.1       0.109
  J94                  JUNCTION     0.000    2.065     0  04:36    6.19e-06          18       0.125
  J95                  JUNCTION     0.000    2.065     0  04:36           0          18       0.048
  J96                  JUNCTION     0.000    2.110     0  04:34           0        18.6       0.176
  J97                  JUNCTION     0.000    2.108     0  04:35           0        18.5       0.150
  J98                  JUNCTION     0.000    2.107     0  04:35           0        18.5       0.132
  J99                  JUNCTION     0.000    2.106     0  04:36           0        18.5       0.112
  J100                 JUNCTION     0.000    2.105     0  04:36           0        18.4       0.095
  J101                 JUNCTION     0.000    2.105     0  04:37           0        18.4       0.110
  J102                 JUNCTION     0.000    2.106     0  04:37           0        18.4       0.085
  J103                 JUNCTION     0.000    2.155     0  04:35           0        18.6       0.064
  J104                 JUNCTION     0.000    2.166     0  04:35           0        18.6       0.084
  J105                 JUNCTION     0.000    2.164     0  04:35           0        18.6       0.104
  J106                 JUNCTION     0.000    2.162     0  04:36           0        18.6       0.116
  J107                 JUNCTION     0.000    2.161     0  04:36           0        18.6       0.119
  J108                 JUNCTION     0.000    2.159     0  04:37    2.18e-05        18.5       0.107
  J109                 JUNCTION     0.000    2.158     0  04:37           0        18.5       0.091
  J110                 JUNCTION     0.000    2.156     0  04:37           0        18.5       0.088
  J111                 JUNCTION     0.000    2.156     0  04:38    0.000189        18.5       0.065
  J112                 JUNCTION     0.000    2.189     0  04:38           0        18.7       0.091
  J113                 JUNCTION     0.000    2.188     0  04:38           0        18.7       0.088
  J114                 JUNCTION     0.000    2.188     0  04:39           0        18.7       0.076
  J115                 JUNCTION     0.000    2.187     0  04:39           0        18.7       0.055
  J116                 JUNCTION     0.000    2.187     0  04:39    6.07e-06        18.6       0.073
  J117                 JUNCTION     0.000    2.186     0  04:40           0        18.6       0.090
  J118                 JUNCTION     0.000    2.186     0  04:40           0        18.6       0.078
  J119                 JUNCTION     0.000    2.185     0  04:40           0        18.6       0.076
  J120                 JUNCTION     0.000    2.185     0  04:40           0        18.6       0.093
  FID2451              JUNCTION     0.000    1.138     0  04:09           0        14.7       0.227
  J121                 JUNCTION     0.006    1.778     0  04:35      0.0164        16.5       0.105
  J122                 JUNCTION     0.000    1.778     0  04:35    0.000746        16.4       0.092
  FID3706              JUNCTION     0.000    2.064     0  04:35           0        18.1       0.163
  FID2831              JUNCTION     0.000    2.110     0  04:33           0        18.6       0.103
  FID2689              OUTFALL      0.000    2.185     0  04:41           0        18.6       0.000
  
  
  **********************
  Node Surcharge Summary
  **********************
  
  Surcharging occurs when water rises above the top of the highest conduit.
  ---------------------------------------------------------------------
                                               Max. Height   Min. Depth
                                   Hours       Above Crown    Below Rim
  Node                 Type      Surcharged         Meters       Meters
  ---------------------------------------------------------------------
  FID2446              JUNCTION        0.12          0.090        0.000
  FID2719              JUNCTION        0.07          0.381        0.000
  
  
  *********************
  Node Flooding Summary
  *********************
  
  Flooding refers to all water that overflows a node, whether it ponds or not.
  --------------------------------------------------------------------------
                                                             Total   Maximum
                                 Maximum   Time of Max       Flood    Ponded
                        Hours       Rate    Occurrence      Volume     Depth
  Node                 Flooded       CMS   days hr:min    10^6 ltr    Meters
  --------------------------------------------------------------------------
  FID2446                 0.12     0.009      0  04:03       0.002     0.090
  FID2719                 0.01     0.001      0  04:05       0.000     0.000
  
  
  ***********************
  Outfall Loading Summary
  ***********************
  
  -----------------------------------------------------------------------------------------------------
                         Flow       Avg       Max       Total         Total         Total         Total
                         Freq      Flow      Flow      Volume           TSS            TP           TDP
  Outfall Node           Pcnt       CMS       CMS    10^6 ltr            kg            kg            kg
  -----------------------------------------------------------------------------------------------------
  FID2689               76.94     0.991     2.185      18.566      4740.549         3.419         6.894
  -----------------------------------------------------------------------------------------------------
  System                76.94     0.991     2.185      18.566      4740.549         3.419         6.894
  
  
  ********************
  Link Flow Summary
  ********************
  
  -----------------------------------------------------------------------------
                                 Maximum  Time of Max   Maximum    Max/    Max/
                                  |Flow|   Occurrence   |Veloc|    Full    Full
  Link                 Type          CMS  days hr:min     m/sec    Flow   Depth
  -----------------------------------------------------------------------------
  FID1123              CONDUIT     0.025     0  04:10      0.78    0.46    0.71
  FID1139              CONDUIT     0.181     0  04:05      1.66    1.43    0.91
  FID1148              CONDUIT     0.191     0  04:10      1.04    0.52    0.32
  FID1149              CONDUIT     0.191     0  04:10      2.16    0.07    0.35
  FID3364              CONDUIT     0.204     0  04:10      0.99    0.19    0.44
  FID3671              CONDUIT     0.011     0  04:14      1.06    0.09    0.20
  FID3672              CONDUIT     0.038     0  04:15      1.49    0.31    0.38
  FID3762              CONDUIT     0.075     0  04:15      1.86    0.25    0.49
  FID3765              CONDUIT     0.164     0  04:15      2.69    0.51    0.59
  FID4112              CONDUIT     0.198     0  04:05      1.66    0.38    0.43
  FID4186              CONDUIT     0.013     0  04:05      0.92    0.07    0.18
  FID4187              CONDUIT     0.013     0  04:05      1.44    0.04    0.13
  FID4201              CONDUIT     0.137     0  04:05      1.22    1.55    0.97
  FID4202              CONDUIT     0.136     0  04:05      1.36    1.09    0.82
  FID4203              CONDUIT     0.000     0  00:00      0.00    0.00    0.33
  FID4299              CONDUIT     0.008     0  03:30      0.93    0.04    0.13
  FID4372              CONDUIT     0.254     0  04:05      0.99    0.05    0.39
  FID4498              CONDUIT     0.023     0  04:10      0.42    0.08    0.71
  FID4806              CONDUIT     0.210     0  04:05      4.99    0.03    0.12
  FID4807              CONDUIT     0.002     0  03:30      0.71    0.02    0.09
  FID4882              CONDUIT     0.000     0  03:54      0.02    0.00    0.52
  FID4884              CONDUIT     0.076     0  04:10      1.82    0.03    0.18
  FID4914              CONDUIT     0.016     0  04:10      0.23    0.06    0.59
  FID4915              CONDUIT     0.003     0  03:55      0.23    0.10    0.22
  FID4916              CONDUIT     0.003     0  03:55      0.28    0.10    0.16
  FID4917              CONDUIT     0.004     0  03:55      0.83    0.01    0.54
  FID5307              CONDUIT     0.014     0  04:05      0.44    0.27    0.32
  FID5308              CONDUIT     0.007     0  03:30      1.16    0.04    0.14
  FID5312              CONDUIT     0.013     0  04:05      0.60    0.09    0.19
  FID5865              CONDUIT     0.367     0  04:20      3.13    0.17    0.38
  C9                   CHANNEL     0.667     0  04:15      0.66    0.07    0.48
  C12                  CHANNEL     0.668     0  04:20      0.46    0.29    0.57
  C13                  CHANNEL     0.680     0  04:20      0.62    0.30    0.59
  C14                  CHANNEL     0.465     0  04:34      0.69    0.20    0.61
  C52                  CONDUIT     0.210     0  04:05      1.48    0.36    0.57
  C130                 CONDUIT     0.043     0  04:05      0.64    0.88    0.43
  C131                 CONDUIT     0.043     0  04:05      1.66    0.10    0.47
  C139                 CONDUIT     0.002     0  03:32      0.10    0.02    0.56
  C191                 CHANNEL     0.499     0  04:19      0.48    0.22    0.64
  C193                 CHANNEL     0.516     0  04:18      0.38    0.23    0.74
  C194                 CHANNEL     0.530     0  04:33      0.30    0.23    0.79
  C195                 CHANNEL     0.534     0  04:33      0.35    0.10    0.63
  C196                 CONDUIT     0.489     0  04:19      0.45    0.36    0.67
  C197                 CONDUIT     0.657     0  04:15      0.24    0.31    0.88
  C198                 CHANNEL     0.730     0  04:15      0.31    0.14    0.53
  C199                 CHANNEL     0.730     0  04:15      0.32    3.18    0.61
  C200                 CHANNEL     0.732     0  04:15      0.34    2.88    0.59
  C201                 CHANNEL     0.735     0  04:15      0.35    0.22    0.49
  C202                 CHANNEL     0.741     0  04:15      0.35    0.22    0.50
  C203                 CHANNEL     0.746     0  04:15      0.35    0.22    0.51
  C204                 CHANNEL     0.751     0  04:15      0.51    0.22    0.52
  C205                 CONDUIT     0.892     0  04:05      0.35    0.62    0.64
  C206                 CHANNEL     1.067     0  04:05      0.43    0.32    0.53
  C207                 CHANNEL     1.025     0  04:05      0.42    0.30    0.53
  C208                 CHANNEL     0.960     0  04:06      0.40    0.28    0.52
  C209                 CHANNEL     0.949     0  04:07      0.40    0.28    0.52
  C210                 CHANNEL     0.953     0  04:07      0.48    0.29    0.61
  C211                 CHANNEL     0.960     0  04:08      0.47    0.35    0.56
  C212                 CONDUIT     1.244     0  04:05      0.47    0.72    0.67
  C213                 CHANNEL     1.234     0  04:05      0.60    0.45    0.56
  C214                 CHANNEL     1.216     0  04:05      0.63    0.44    0.54
  C215                 CONDUIT     1.150     0  04:08      0.41    0.66    0.70
  C216                 CONDUIT     1.126     0  04:09      0.51    0.84    0.58
  C217                 CONDUIT     1.136     0  04:09      0.43    0.45    0.45
  C218                 CHANNEL     1.283     0  04:09      0.54    0.46    0.63
  C219                 CHANNEL     1.278     0  04:10      0.54    0.46    0.63
  C220                 CHANNEL     1.272     0  04:10      0.55    0.46    0.61
  C221                 CHANNEL     1.271     0  04:11      0.57    0.46    0.59
  C222                 CONDUIT     1.328     0  04:11      0.55    0.89    0.69
  C223                 CHANNEL     1.413     0  04:11      1.38    0.18    0.60
  C224                 CHANNEL     1.406     0  04:12      0.52    0.91    0.91
  C225                 CHANNEL     1.400     0  04:21      0.53    0.91    0.90
  C226                 CHANNEL     1.395     0  04:21      0.54    0.91    0.88
  C227                 CONDUIT     1.390     0  04:23      0.42    1.13    0.94
  C228                 CHANNEL     1.399     0  04:23      0.68    0.57    0.74
  C229                 CONDUIT     1.456     0  04:20      0.35    0.26    0.54
  C230                 CHANNEL     1.459     0  04:20      0.68    0.60    0.77
  C231                 CHANNEL     1.451     0  04:20      0.67    0.59    0.76
  C232                 CHANNEL     1.442     0  04:22      0.67    0.59    0.76
  C233                 CHANNEL     1.434     0  04:26      0.66    0.59    0.77
  C234                 CONDUIT     1.443     0  04:25      0.50    0.59    0.61
  C235                 CHANNEL     1.446     0  04:25      0.66    0.59    0.78
  C236                 CHANNEL     1.612     0  04:22      0.69    0.77    0.87
  C237                 CHANNEL     1.611     0  04:22      0.68    0.77    0.87
  C238                 CHANNEL     1.658     0  04:21      0.71    0.79    0.87
  C239                 CHANNEL     1.651     0  04:23      0.71    0.79    0.87
  C240                 CHANNEL     1.648     0  04:23      0.71    0.77    0.87
  C241                 CHANNEL     1.649     0  04:23      0.76    0.79    0.87
  C242                 CONDUIT     1.656     0  04:23      0.53    0.58    0.70
  C243                 CHANNEL     1.655     0  04:25      0.74    0.79    0.84
  C244                 CHANNEL     1.654     0  04:31      0.94    0.27    0.50
  C245                 CONDUIT     1.655     0  04:31      0.63    0.46    0.65
  C246                 CHANNEL     1.784     0  04:30      0.61    0.57    0.74
  C247                 CHANNEL     1.779     0  04:32      0.62    0.57    0.72
  C248                 CHANNEL     1.777     0  04:34      0.65    0.57    0.70
  C249                 CHANNEL     1.778     0  04:35      2.75    0.72    0.72
  C250                 CONDUIT     1.778     0  04:35      0.75    0.65    0.58
  C251                 CONDUIT     1.779     0  04:35      0.76    0.65    0.58
  C252                 CHANNEL     1.849     0  04:30      2.04    0.75    0.68
  C253                 CHANNEL     1.845     0  04:31      0.84    0.42    0.68
  C254                 CHANNEL     1.839     0  04:33      1.55    0.42    0.72
  C255                 CHANNEL     1.834     0  04:35      1.35    0.42    0.78
  C256                 CHANNEL     1.842     0  04:36      1.96    0.42    0.84
  C257                 CHANNEL     1.842     0  04:36      2.65    0.42    0.87
  C258                 CONDUIT     1.842     0  04:36      0.62    0.67    0.73
  C259                 CHANNEL     1.842     0  04:37      1.24    0.42    0.92
  C260                 CHANNEL     1.844     0  04:37      0.90    0.42    0.96
  C261                 CHANNEL     1.858     0  04:37      1.36    0.42    0.98
  C262                 CHANNEL     1.860     0  04:38      0.48    0.42    1.00
  C263                 CHANNEL     1.863     0  04:38      0.52    0.43    0.71
  C264                 CONDUIT     1.865     0  04:38      0.58    0.97    0.77
  C265                 CHANNEL     2.061     0  04:34      0.62    0.48    0.64
  C266                 CHANNEL     2.060     0  04:34      0.65    0.40    0.69
  C267                 CHANNEL     2.059     0  04:35      0.65    0.40    0.69
  C268                 CHANNEL     2.059     0  04:35      0.65    0.40    0.69
  C269                 CHANNEL     2.064     0  04:35      0.89    0.40    0.69
  C270                 CHANNEL     2.065     0  04:36      0.66    0.40    0.69
  C271                 CHANNEL     2.065     0  04:36      0.66    0.40    0.69
  C272                 CHANNEL     2.065     0  04:36      0.66    0.40    0.69
  C273                 CHANNEL     2.110     0  04:34      0.68    0.41    0.69
  C274                 CHANNEL     2.108     0  04:35      0.69    0.41    0.68
  C275                 CHANNEL     2.107     0  04:35      0.71    0.41    0.67
  C276                 CHANNEL     2.106     0  04:36      0.73    0.41    0.66
  C277                 CHANNEL     2.105     0  04:36      0.75    0.41    0.65
  C278                 CHANNEL     2.105     0  04:37      0.79    0.41    0.63
  C279                 CHANNEL     2.106     0  04:37      0.91    0.41    0.59
  C280                 CHANNEL     2.108     0  04:38      0.76    0.72    0.80
  C281                 CHANNEL     2.155     0  04:35      0.78    0.73    0.80
  C282                 CHANNEL     2.153     0  04:35      0.79    0.73    0.79
  C283                 CHANNEL     2.166     0  04:35      0.80    0.74    0.78
  C284                 CHANNEL     2.164     0  04:35      0.82    0.74    0.77
  C285                 CHANNEL     2.162     0  04:36      0.85    0.74    0.75
  C286                 CHANNEL     2.161     0  04:36      0.95    0.52    0.73
  C287                 CHANNEL     2.159     0  04:37      0.95    0.52    0.73
  C288                 CHANNEL     2.158     0  04:37      0.95    0.52    0.73
  C289                 CHANNEL     2.156     0  04:37      0.95    0.52    0.73
  C290                 CHANNEL     2.156     0  04:38      0.94    0.52    0.74
  C291                 CHANNEL     2.155     0  04:38      0.94    0.52    0.74
  C292                 CHANNEL     2.189     0  04:38      0.95    0.53    0.74
  C293                 CHANNEL     2.188     0  04:38      0.95    0.53    0.74
  C294                 CHANNEL     2.188     0  04:39      0.95    0.53    0.74
  C295                 CHANNEL     2.187     0  04:39      0.96    0.53    0.74
  C296                 CHANNEL     2.187     0  04:39      0.96    0.53    0.74
  C297                 CHANNEL     2.186     0  04:40      0.96    0.53    0.73
  C298                 CHANNEL     2.186     0  04:40      0.97    0.53    0.73
  C299                 CHANNEL     2.185     0  04:40      0.97    0.53    0.73
  C300                 CHANNEL     2.185     0  04:40      1.00    0.53    0.71
  C301                 CHANNEL     2.185     0  04:41      1.52    0.39    0.47
  C302                 CHANNEL     0.666     0  04:15      0.57    0.10    0.43
  C303                 CHANNEL     0.506     0  04:19      0.43    0.22    0.68
  C353                 CONDUIT     0.076     0  04:15      1.75    0.03    0.12
  
  
  ***************************
  Flow Classification Summary
  ***************************
  
  -------------------------------------------------------------------------------------
                      Adjusted    ---------- Fraction of Time in Flow Class ---------- 
                       /Actual         Up    Down  Sub   Sup   Up    Down  Norm  Inlet 
  Conduit               Length    Dry  Dry   Dry   Crit  Crit  Crit  Crit  Ltd   Ctrl  
  -------------------------------------------------------------------------------------
  FID1123                 1.00   0.18  0.00  0.00  0.31  0.00  0.00  0.51  0.21  0.00
  FID1139                 1.00   0.16  0.00  0.00  0.19  0.00  0.00  0.64  0.13  0.00
  FID1148                 1.00   0.14  0.00  0.00  0.52  0.00  0.00  0.33  0.00  0.00
  FID1149                 1.00   0.15  0.00  0.00  0.46  0.06  0.00  0.33  0.38  0.00
  FID3364                 1.00   0.14  0.01  0.00  0.86  0.00  0.00  0.00  0.70  0.00
  FID3671                 1.00   0.22  0.00  0.00  0.00  0.00  0.00  0.78  0.00  0.00
  FID3672                 1.00   0.18  0.00  0.00  0.00  0.00  0.00  0.82  0.00  0.00
  FID3762                 1.00   0.01  0.16  0.00  0.71  0.12  0.00  0.00  0.67  0.00
  FID3765                 1.00   0.01  0.16  0.00  0.66  0.17  0.00  0.00  0.68  0.00
  FID4112                 1.00   0.16  0.00  0.00  0.00  0.00  0.00  0.84  0.00  0.00
  FID4186                 1.00   0.22  0.00  0.00  0.40  0.11  0.00  0.27  0.00  0.00
  FID4187                 1.00   0.23  0.00  0.00  0.00  0.00  0.00  0.77  0.00  0.00
  FID4201                 1.00   0.16  0.00  0.00  0.78  0.00  0.00  0.06  0.44  0.00
  FID4202                 1.00   0.19  0.00  0.00  0.00  0.00  0.00  0.81  0.00  0.00
  FID4203                 1.00   0.17  0.83  0.00  0.00  0.00  0.00  0.00  0.00  0.00
  FID4299                 1.00   0.23  0.00  0.00  0.00  0.00  0.00  0.77  0.00  0.00
  FID4372                 1.00   0.07  0.12  0.00  0.81  0.00  0.00  0.00  0.66  0.00
  FID4498                 1.00   0.14  0.00  0.00  0.85  0.00  0.00  0.01  0.58  0.00
  FID4806                 1.00   0.17  0.00  0.00  0.00  0.00  0.00  0.83  0.00  0.00
  FID4807                 1.00   0.24  0.00  0.00  0.00  0.00  0.00  0.76  0.00  0.00
  FID4882                 1.00   0.24  0.30  0.00  0.30  0.00  0.00  0.16  0.59  0.00
  FID4884                 1.00   0.15  0.00  0.00  0.20  0.03  0.00  0.62  0.15  0.00
  FID4914                 1.00   0.11  0.07  0.00  0.81  0.00  0.00  0.00  0.66  0.00
  FID4915                 1.00   0.24  0.00  0.00  0.76  0.00  0.00  0.01  0.49  0.00
  FID4916                 1.00   0.24  0.00  0.00  0.58  0.00  0.00  0.18  0.09  0.00
  FID4917                 1.00   0.25  0.00  0.00  0.42  0.00  0.00  0.32  0.32  0.00
  FID5307                 1.00   0.22  0.00  0.00  0.75  0.00  0.00  0.03  0.49  0.00
  FID5308                 1.00   0.23  0.00  0.00  0.00  0.00  0.00  0.77  0.00  0.00
  FID5312                 1.00   0.23  0.00  0.00  0.00  0.00  0.00  0.77  0.00  0.00
  FID5865                 1.00   0.15  0.00  0.00  0.17  0.13  0.00  0.55  0.21  0.00
  C9                      1.00   0.00  0.00  0.00  1.00  0.00  0.00  0.00  0.00  0.00
  C12                     1.00   0.00  0.00  0.00  1.00  0.00  0.00  0.00  0.00  0.00
  C13                     1.00   0.00  0.00  0.00  1.00  0.00  0.00  0.00  0.00  0.00
  C14                     1.00   0.00  0.00  0.00  1.00  0.00  0.00  0.00  0.00  0.00
  C52                     1.00   0.04  0.14  0.00  0.82  0.01  0.00  0.00  0.68  0.00
  C130                    1.00   0.22  0.00  0.00  0.54  0.00  0.00  0.24  0.00  0.00
  C131                    1.00   0.24  0.00  0.00  0.38  0.01  0.00  0.37  0.28  0.00
  C139                    1.00   0.14  0.46  0.00  0.39  0.00  0.01  0.00  0.49  0.00
  C191                    1.00   0.00  0.00  0.00  1.00  0.00  0.00  0.00  0.00  0.00
  C193                    1.00   0.00  0.00  0.00  1.00  0.00  0.00  0.00  0.00  0.00
  C194                    1.00   0.00  0.00  0.00  1.00  0.00  0.00  0.00  0.00  0.00
  C195                    1.00   0.01  0.00  0.00  0.99  0.00  0.00  0.00  0.00  0.00
  C196                    1.00   0.00  0.00  0.00  1.00  0.00  0.00  0.00  0.00  0.00
  C197                    1.00   0.01  0.00  0.00  0.99  0.00  0.00  0.00  0.00  0.00
  C198                    1.00   0.01  0.00  0.00  0.99  0.00  0.00  0.00  0.00  0.00
  C199                    1.00   0.01  0.00  0.00  0.99  0.00  0.00  0.00  0.00  0.00
  C200                    1.00   0.01  0.00  0.00  0.99  0.00  0.00  0.00  0.00  0.00
  C201                    1.00   0.01  0.00  0.00  0.99  0.00  0.00  0.00  0.00  0.00
  C202                    1.00   0.01  0.00  0.00  0.99  0.00  0.00  0.00  0.00  0.00
  C203                    1.00   0.01  0.00  0.00  0.99  0.00  0.00  0.00  0.00  0.00
  C204                    1.00   0.01  0.00  0.00  0.99  0.00  0.00  0.00  0.00  0.00
  C205                    1.00   0.02  0.00  0.00  0.98  0.00  0.00  0.00  0.00  0.00
  C206                    1.00   0.02  0.00  0.00  0.98  0.00  0.00  0.00  0.00  0.00
  C207                    1.00   0.02  0.00  0.00  0.98  0.00  0.00  0.00  0.00  0.00
  C208                    1.00   0.02  0.00  0.00  0.98  0.00  0.00  0.00  0.00  0.00
  C209                    1.00   0.02  0.00  0.00  0.98  0.00  0.00  0.00  0.00  0.00
  C210                    1.00   0.02  0.00  0.00  0.98  0.00  0.00  0.00  0.00  0.00
  C211                    1.00   0.02  0.00  0.00  0.98  0.00  0.00  0.00  0.00  0.00
  C212                    1.00   0.02  0.00  0.00  0.98  0.00  0.00  0.00  0.00  0.00
  C213                    1.00   0.02  0.00  0.00  0.98  0.00  0.00  0.00  0.00  0.00
  C214                    1.00   0.02  0.00  0.00  0.98  0.00  0.00  0.00  0.00  0.00
  C215                    1.00   0.03  0.00  0.00  0.97  0.00  0.00  0.00  0.70  0.00
  C216                    1.00   0.03  0.00  0.00  0.97  0.00  0.00  0.00  0.00  0.00
  C217                    1.00   0.03  0.00  0.00  0.97  0.00  0.00  0.00  0.00  0.00
  C218                    1.00   0.03  0.00  0.00  0.97  0.00  0.00  0.00  0.00  0.00
  C219                    1.00   0.03  0.00  0.00  0.97  0.00  0.00  0.00  0.00  0.00
  C220                    1.00   0.04  0.00  0.00  0.96  0.00  0.00  0.00  0.00  0.00
  C221                    1.00   0.04  0.00  0.00  0.96  0.00  0.00  0.00  0.00  0.00
  C222                    1.00   0.04  0.00  0.00  0.96  0.00  0.00  0.00  0.00  0.00
  C223                    1.00   0.04  0.00  0.00  0.96  0.00  0.00  0.00  0.01  0.00
  C224                    1.00   0.04  0.00  0.00  0.96  0.00  0.00  0.00  0.00  0.00
  C225                    1.00   0.04  0.00  0.00  0.96  0.00  0.00  0.00  0.00  0.00
  C226                    1.00   0.04  0.00  0.00  0.96  0.00  0.00  0.00  0.00  0.00
  C227                    1.00   0.05  0.00  0.00  0.95  0.00  0.00  0.00  0.00  0.00
  C228                    1.00   0.05  0.00  0.00  0.95  0.00  0.00  0.00  0.00  0.00
  C229                    1.00   0.05  0.00  0.00  0.95  0.00  0.00  0.00  0.00  0.00
  C230                    1.00   0.05  0.00  0.00  0.95  0.00  0.00  0.00  0.00  0.00
  C231                    1.00   0.06  0.00  0.00  0.94  0.00  0.00  0.00  0.01  0.00
  C232                    1.00   0.06  0.00  0.00  0.94  0.00  0.00  0.00  0.00  0.00
  C233                    1.00   0.06  0.00  0.00  0.94  0.00  0.00  0.00  0.03  0.00
  C234                    1.00   0.06  0.00  0.00  0.94  0.00  0.00  0.00  0.00  0.00
  C235                    1.00   0.06  0.00  0.00  0.94  0.00  0.00  0.00  0.00  0.00
  C236                    1.00   0.06  0.00  0.00  0.94  0.00  0.00  0.00  0.00  0.00
  C237                    1.00   0.07  0.00  0.00  0.93  0.00  0.00  0.00  0.00  0.00
  C238                    1.00   0.07  0.00  0.00  0.93  0.00  0.00  0.00  0.00  0.00
  C239                    1.00   0.07  0.00  0.00  0.93  0.00  0.00  0.00  0.00  0.00
  C240                    1.00   0.07  0.00  0.00  0.93  0.00  0.00  0.00  0.00  0.00
  C241                    1.00   0.07  0.00  0.00  0.93  0.00  0.00  0.00  0.00  0.00
  C242                    1.00   0.07  0.00  0.00  0.93  0.00  0.00  0.00  0.00  0.00
  C243                    1.00   0.07  0.00  0.00  0.93  0.00  0.00  0.00  0.00  0.00
  C244                    1.00   0.07  0.00  0.00  0.92  0.01  0.00  0.00  0.00  0.00
  C245                    1.00   0.08  0.00  0.00  0.92  0.00  0.00  0.00  0.00  0.00
  C246                    1.00   0.08  0.00  0.00  0.92  0.00  0.00  0.00  0.51  0.00
  C247                    1.00   0.09  0.00  0.00  0.91  0.00  0.00  0.00  0.00  0.00
  C248                    1.00   0.10  0.00  0.00  0.90  0.00  0.00  0.00  0.00  0.00
  C249                    1.00   0.11  0.00  0.00  0.89  0.00  0.00  0.00  0.00  0.00
  C250                    1.00   0.12  0.00  0.00  0.88  0.00  0.00  0.00  0.00  0.00
  C251                    1.00   0.13  0.00  0.00  0.87  0.00  0.00  0.00  0.00  0.00
  C252                    1.00   0.13  0.00  0.00  0.87  0.00  0.00  0.00  0.00  0.00
  C253                    1.00   0.13  0.00  0.00  0.87  0.00  0.00  0.00  0.00  0.00
  C254                    1.00   0.14  0.00  0.00  0.86  0.00  0.00  0.00  0.04  0.00
  C255                    1.00   0.14  0.00  0.00  0.86  0.00  0.00  0.00  0.00  0.00
  C256                    1.00   0.13  0.01  0.00  0.86  0.00  0.00  0.00  0.00  0.00
  C257                    1.00   0.13  0.00  0.00  0.87  0.00  0.00  0.00  0.00  0.00
  C258                    1.00   0.13  0.02  0.00  0.85  0.00  0.00  0.00  0.00  0.00
  C259                    1.00   0.13  0.00  0.00  0.87  0.00  0.00  0.00  0.00  0.00
  C260                    1.00   0.15  0.01  0.00  0.84  0.00  0.00  0.00  0.00  0.00
  C261                    1.00   0.15  0.00  0.00  0.85  0.00  0.00  0.00  0.00  0.00
  C262                    1.00   0.15  0.00  0.00  0.85  0.00  0.00  0.00  0.00  0.00
  C263                    1.00   0.16  0.00  0.00  0.84  0.00  0.00  0.00  0.00  0.00
  C264                    1.00   0.15  0.00  0.00  0.85  0.00  0.00  0.00  0.00  0.00
  C265                    1.00   0.15  0.02  0.00  0.83  0.00  0.00  0.00  0.00  0.00
  C266                    1.00   0.17  0.00  0.00  0.83  0.00  0.00  0.00  0.00  0.00
  C267                    1.00   0.17  0.00  0.00  0.83  0.00  0.00  0.00  0.00  0.00
  C268                    1.00   0.18  0.00  0.00  0.82  0.00  0.00  0.00  0.00  0.00
  C269                    1.00   0.18  0.00  0.00  0.82  0.00  0.00  0.00  0.00  0.00
  C270                    1.00   0.18  0.00  0.00  0.82  0.00  0.00  0.00  0.00  0.00
  C271                    1.00   0.16  0.02  0.00  0.82  0.00  0.00  0.00  0.00  0.00
  C272                    1.00   0.15  0.01  0.00  0.84  0.00  0.00  0.00  0.00  0.00
  C273                    1.00   0.15  0.00  0.00  0.85  0.00  0.00  0.00  0.00  0.00
  C274                    1.00   0.16  0.00  0.00  0.84  0.00  0.00  0.00  0.00  0.00
  C275                    1.00   0.19  0.00  0.00  0.81  0.00  0.00  0.00  0.00  0.00
  C276                    1.00   0.19  0.00  0.00  0.81  0.00  0.00  0.00  0.00  0.00
  C277                    1.00   0.19  0.00  0.00  0.81  0.00  0.00  0.00  0.00  0.00
  C278                    1.00   0.20  0.00  0.00  0.80  0.00  0.00  0.00  0.00  0.00
  C279                    1.00   0.20  0.00  0.00  0.80  0.00  0.00  0.00  0.00  0.00
  C280                    1.00   0.16  0.04  0.00  0.80  0.00  0.00  0.00  0.00  0.00
  C281                    1.00   0.16  0.00  0.00  0.84  0.00  0.00  0.00  0.01  0.00
  C282                    1.00   0.17  0.00  0.00  0.83  0.00  0.00  0.00  0.00  0.00
  C283                    1.00   0.18  0.00  0.00  0.82  0.00  0.00  0.00  0.00  0.00
  C284                    1.00   0.20  0.00  0.00  0.80  0.00  0.00  0.00  0.00  0.00
  C285                    1.00   0.21  0.00  0.00  0.79  0.00  0.00  0.00  0.00  0.00
  C286                    1.00   0.21  0.00  0.00  0.79  0.00  0.00  0.00  0.25  0.00
  C287                    1.00   0.17  0.04  0.00  0.79  0.00  0.00  0.00  0.24  0.00
  C288                    1.00   0.17  0.00  0.00  0.83  0.00  0.00  0.00  0.00  0.00
  C289                    1.00   0.21  0.00  0.00  0.79  0.00  0.00  0.00  0.00  0.00
  C290                    1.00   0.15  0.06  0.00  0.78  0.00  0.00  0.00  0.00  0.00
  C291                    1.00   0.15  0.00  0.00  0.85  0.00  0.00  0.00  0.04  0.00
  C292                    1.00   0.18  0.00  0.00  0.82  0.00  0.00  0.00  0.00  0.00
  C293                    1.00   0.18  0.00  0.00  0.82  0.00  0.00  0.00  0.00  0.00
  C294                    1.00   0.20  0.00  0.00  0.80  0.00  0.00  0.00  0.00  0.00
  C295                    1.00   0.22  0.00  0.00  0.78  0.00  0.00  0.00  0.00  0.00
  C296                    1.00   0.22  0.00  0.00  0.78  0.00  0.00  0.00  0.00  0.00
  C297                    1.00   0.22  0.00  0.00  0.78  0.00  0.00  0.00  0.00  0.00
  C298                    1.00   0.23  0.00  0.00  0.77  0.00  0.00  0.00  0.00  0.00
  C299                    1.00   0.23  0.00  0.00  0.77  0.00  0.00  0.00  0.00  0.00
  C300                    1.00   0.23  0.00  0.00  0.77  0.00  0.00  0.00  0.00  0.00
  C301                    1.00   0.23  0.00  0.00  0.77  0.00  0.00  0.00  0.00  0.00
  C302                    1.00   0.00  0.00  0.00  1.00  0.00  0.00  0.00  0.00  0.00
  C303                    1.00   0.00  0.00  0.00  1.00  0.00  0.00  0.00  0.00  0.00
  C353                    1.00   0.18  0.00  0.00  0.00  0.00  0.00  0.82  0.00  0.00
  
  
  *************************
  Conduit Surcharge Summary
  *************************
  
  ----------------------------------------------------------------------------
                                                           Hours        Hours 
                         --------- Hours Full --------   Above Full   Capacity
  Conduit                Both Ends  Upstream  Dnstream   Normal Flow   Limited
  ----------------------------------------------------------------------------
  FID1123                     0.01      0.01      0.54      0.01         0.01
  FID1139                     0.01      0.07      0.01      0.10         0.01
  FID4201                     0.01      0.12      0.01      0.20         0.01
  FID4202                     0.01      0.01      0.01      0.08         0.01
  FID4498                     0.01      0.01      1.49      0.01         0.01
  FID4882                     0.01      0.01      1.99      0.01         0.01
  FID4914                     0.01      0.01      2.08      0.01         0.01
  FID4917                     0.01      0.01      0.94      0.01         0.01
  C199                        0.01      0.01      0.01      8.53         0.01
  C200                        0.01      0.01      0.01      8.47         0.01
  C227                        0.01      0.01      0.01      0.54         0.01
  C262                        0.01      0.01      0.81      0.01         0.01
  
  
  ***************************
  Link Pollutant Load Summary
  ***************************
  
  --------------------------------------------------------------
                                 TSS            TP           TDP
  Link                            kg            kg            kg
  --------------------------------------------------------------
  FID1123                      4.673         0.001         0.020
  FID1139                     46.961         0.022         0.167
  FID1148                     97.430         0.042         0.312
  FID1149                     97.219         0.042         0.312
  FID3364                    119.631         0.047         0.375
  FID3671                      6.782         0.000         0.018
  FID3672                     29.881         0.016         0.091
  FID3762                    101.924         0.030         0.261
  FID3765                    139.742         0.043         0.382
  FID4112                     49.548         0.023         0.144
  FID4186                     13.619         0.001         0.031
  FID4187                     13.142         0.001         0.029
  FID4201                     36.594         0.017         0.095
  FID4202                     35.858         0.017         0.091
  FID4203                      0.000         0.000         0.000
  FID4299                      6.242         0.003         0.016
  FID4372                   1055.561         0.248         0.269
  FID4498                     51.698         0.063         0.051
  FID4806                   1334.097         0.967         0.379
  FID4807                      0.000         0.000         0.001
  FID4882                      0.000         0.000         0.000
  FID4884                     24.701         0.006         0.093
  FID4914                     24.180         0.007         0.062
  FID4915                      0.876         0.001         0.005
  FID4916                      0.105         0.000         0.001
  FID4917                      0.045         0.000         0.000
  FID5307                      9.974         0.006         0.035
  FID5308                      6.812         0.004         0.017
  FID5312                      8.689         0.005         0.032
  FID5865                    456.527         1.171         0.477
  C9                         169.813         1.037         1.348
  C12                        168.693         1.022         1.329
  C13                        187.799         1.024         1.369
  C14                        123.062         0.675         0.906
  C52                        169.853         0.068         0.515
  C130                        13.801         0.006         0.043
  C131                        13.554         0.006         0.042
  C139                         2.724         0.001         0.004
  C191                       159.427         0.685         1.007
  C193                       159.148         0.666         0.985
  C194                       157.109         0.661         0.980
  C195                       156.734         0.659         0.978
  C196                       152.902         0.688         0.993
  C197                       296.492         0.700         1.357
  C198                       398.172         0.727         1.616
  C199                       399.784         0.724         1.616
  C200                       398.773         0.721         1.611
  C201                       403.718         0.717         1.608
  C202                       410.121         0.715         1.620
  C203                       409.314         0.711         1.616
  C204                       407.919         0.710         1.611
  C205                       490.773         0.752         1.877
  C206                       539.511         0.772         2.016
  C207                       541.728         0.769         2.022
  C208                       553.867         0.765         2.044
  C209                       548.299         0.760         2.027
  C210                       548.575         0.758         2.025
  C211                       547.672         0.756         2.021
  C212                       697.005         0.810         2.438
  C213                       699.616         0.811         2.444
  C214                       699.598         0.809         2.444
  C215                       762.374         0.805         2.561
  C216                       728.876         0.789         2.495
  C217                       765.359         0.804         2.585
  C218                       933.723         0.869         3.094
  C219                       936.551         0.867         3.099
  C220                       937.908         0.863         3.097
  C221                       961.241         0.859         3.142
  C222                      1024.291         0.887         3.346
  C223                      1115.316         0.935         3.628
  C224                      1128.373         0.934         3.657
  C225                      1133.543         0.926         3.659
  C226                      1132.872         0.922         3.655
  C227                      1186.741         0.917         3.753
  C228                      1171.530         0.898         3.716
  C229                      1302.388         0.929         4.056
  C230                      1306.718         0.930         4.067
  C231                      1322.665         0.929         4.098
  C232                      1313.145         0.922         4.071
  C233                      1352.856         0.920         4.150
  C234                      1321.786         0.908         4.081
  C235                      1331.332         0.914         4.109
  C236                      2384.195         1.160         4.376
  C237                      2412.216         1.163         4.391
  C238                      2552.666         1.215         4.787
  C239                      2536.679         1.209         4.771
  C240                      2524.925         1.206         4.760
  C241                      2531.208         1.209         4.776
  C242                      2548.253         1.215         4.813
  C243                      2633.724         1.224         4.895
  C244                      2572.280         1.202         4.870
  C245                      2575.207         1.201         4.871
  C246                      4013.467         2.213         5.302
  C247                      3916.331         2.152         5.308
  C248                      3952.807         2.166         5.317
  C249                      3897.619         2.137         5.291
  C250                      3897.205         2.137         5.305
  C251                      3899.525         2.137         5.305
  C252                      4014.426         2.181         5.676
  C253                      4044.660         2.193         5.687
  C254                      4060.509         2.197         5.690
  C255                      4052.366         2.191         5.682
  C256                      4086.624         2.243         5.721
  C257                      4071.416         2.233         5.729
  C258                      4072.386         2.233         5.727
  C259                      4103.973         2.247         5.736
  C260                      4071.586         2.229         5.721
  C261                      4103.181         2.236         5.814
  C262                      4139.973         2.252         5.821
  C263                      4108.612         2.233         5.805
  C264                      4100.999         2.226         5.797
  C265                      4545.033         3.382         6.267
  C266                      4562.912         3.398         6.272
  C267                      4557.507         3.391         6.267
  C268                      4575.631         3.408         6.270
  C269                      4546.811         3.372         6.276
  C270                      4566.459         3.391         6.281
  C271                      4548.779         3.371         6.273
  C272                      4545.471         3.367         6.271
  C273                      4661.228         3.427         6.589
  C274                      4657.272         3.421         6.584
  C275                      4653.541         3.416         6.579
  C276                      4651.906         3.413         6.576
  C277                      4648.039         3.407         6.573
  C278                      4647.449         3.406         6.571
  C279                      4649.862         3.407         6.570
  C280                      4644.123         3.400         6.566
  C281                      4689.689         3.421         6.732
  C282                      4692.480         3.423         6.732
  C283                      4705.661         3.428         6.773
  C284                      4706.717         3.428         6.772
  C285                      4708.688         3.429         6.771
  C286                      4711.436         3.430         6.770
  C287                      4711.495         3.429         6.768
  C288                      4709.456         3.426         6.766
  C289                      4708.859         3.424         6.764
  C290                      4709.278         3.424         6.763
  C291                      4704.723         3.418         6.760
  C292                      4744.388         3.430         6.908
  C293                      4743.122         3.428         6.906
  C294                      4744.415         3.428         6.905
  C295                      4740.466         3.424         6.901
  C296                      4741.506         3.424         6.901
  C297                      4744.168         3.426         6.902
  C298                      4744.384         3.425         6.900
  C299                      4741.386         3.422         6.897
  C300                      4743.027         3.422         6.897
  C301                      4740.549         3.419         6.894
  C302                       169.275         1.032         1.343
  C303                       159.673         0.678         0.999
  C353                        33.613         0.007         0.146
  

  Analysis begun on:  Tue Oct 10 17:42:22 2017
  Analysis ended on:  Tue Oct 10 17:42:35 2017
  Total elapsed time: 00:00:13