
  EPA STORM WATER MANAGEMENT MODEL - VERSION 5.1 (Build 5.1.010)
  --------------------------------------------------------------

  WARNING 04: minimum elevation drop used for Conduit C199
  WARNING 04: minimum elevation drop used for Conduit C200
  WARNING 02: maximum depth increased for Node FID1955
  WARNING 02: maximum depth increased for Node FID1960
  WARNING 02: maximum depth increased for Node FID1965
  WARNING 02: maximum depth increased for Node FID1968
  WARNING 02: maximum depth increased for Node FID2244
  WARNING 02: maximum depth increased for Node FID2442
  WARNING 02: maximum depth increased for Node FID2446
  WARNING 02: maximum depth increased for Node FID5504
  WARNING 02: maximum depth increased for Node FID5527
  WARNING 02: maximum depth increased for Node AFID6926
  WARNING 02: maximum depth increased for Node AFID7376
  
  *********************************************************
  NOTE: The summary statistics displayed in this report are
  based on results found at every computational time step,  
  not just on results from each reporting time step.
  *********************************************************
  
  ****************
  Analysis Options
  ****************
  Flow Units ............... CMS
  Process Models:
    Rainfall/Runoff ........ YES
    RDII ................... NO
    Snowmelt ............... NO
    Groundwater ............ NO
    Flow Routing ........... YES
    Ponding Allowed ........ YES
    Water Quality .......... YES
  Infiltration Method ...... GREEN_AMPT
  Flow Routing Method ...... DYNWAVE
  Starting Date ............ MAY-06-2016 15:00:00
  Ending Date .............. MAY-07-2016 00:00:00
  Antecedent Dry Days ...... 0.0
  Report Time Step ......... 00:01:00
  Wet Time Step ............ 00:01:00
  Dry Time Step ............ 01:00:00
  Routing Time Step ........ 5.00 sec
  Variable Time Step ....... YES
  Maximum Trials ........... 8
  Number of Threads ........ 3
  Head Tolerance ........... 0.001500 m
  
  
  **************************        Volume         Depth
  Runoff Quantity Continuity     hectare-m            mm
  **************************     ---------       -------
  Total Precipitation ......         2.583         6.709
  Evaporation Loss .........         0.000         0.000
  Infiltration Loss ........         1.310         3.403
  Surface Runoff ...........         0.942         2.447
  Final Storage ............         0.333         0.864
  Continuity Error (%) .....        -0.068
  
  
  **************************           TSS            TP           TDP
  Runoff Quality Continuity             kg            kg            kg
  **************************    ----------    ----------    ----------
  Initial Buildup ..........         0.000         0.000         0.000
  Surface Buildup ..........     13821.805         4.845        10.008
  Wet Deposition ...........         0.000         0.000         0.000
  Sweeping Removal .........         0.000         0.000         0.000
  Infiltration Loss ........         0.000         0.000         0.000
  BMP Removal ..............         0.731         0.000         0.000
  Surface Runoff ...........      7309.791         2.917         4.894
  Remaining Buildup ........      6511.283         1.928         5.114
  Continuity Error (%) .....         0.000         0.000         0.000
  
  
  **************************        Volume        Volume
  Flow Routing Continuity        hectare-m      10^6 ltr
  **************************     ---------     ---------
  Dry Weather Inflow .......         0.000         0.000
  Wet Weather Inflow .......         0.942         9.420
  Groundwater Inflow .......         0.000         0.000
  RDII Inflow ..............         0.000         0.000
  External Inflow ..........         1.384        13.843
  External Outflow .........         1.796        17.962
  Flooding Loss ............         0.000         0.000
  Evaporation Loss .........         0.000         0.000
  Exfiltration Loss ........         0.000         0.000
  Initial Stored Volume ....         0.000         0.000
  Final Stored Volume ......         0.536         5.355
  Continuity Error (%) .....        -0.237
  
  
  **************************           TSS            TP           TDP
  Quality Routing Continuity            kg            kg            kg
  **************************    ----------    ----------    ----------
  Dry Weather Inflow .......         0.000         0.000         0.000
  Wet Weather Inflow .......      7309.280         2.913         4.888
  Groundwater Inflow .......         0.000         0.000         0.000
  RDII Inflow ..............         0.000         0.000         0.000
  External Inflow ..........       137.985         1.039         1.284
  External Outflow .........      7344.852         3.587         5.699
  Flooding Loss ............         0.000         0.000         0.000
  Exfiltration Loss ........         0.000         0.000         0.000
  Mass Reacted .............         0.000         0.000         0.000
  Initial Stored Mass ......         0.000         0.000         0.000
  Final Stored Mass ........        39.203         0.351         0.495
  Continuity Error (%) .....         0.849         0.340        -0.376
  
  
  *************************
  Highest Continuity Errors
  *************************
  Node FID2824 (1.76%)
  Node J72 (1.34%)
  Node FID2449 (1.24%)
  Node J19 (1.21%)
  Node J81 (1.20%)
  
  
  ***************************
  Time-Step Critical Elements
  ***************************
  Link C241 (92.61%)
  Link C14 (6.55%)
  
  
  ********************************
  Highest Flow Instability Indexes
  ********************************
  All links are stable.
  
  
  *************************
  Routing Time Step Summary
  *************************
  Minimum Time Step           :     0.25 sec
  Average Time Step           :     0.94 sec
  Maximum Time Step           :     5.00 sec
  Percent in Steady State     :     0.00
  Average Iterations per Step :     2.01
  Percent Not Converging      :     0.03
  
  
  ***************************
  Subcatchment Runoff Summary
  ***************************
  
  --------------------------------------------------------------------------------------------------------
                            Total      Total      Total      Total      Total       Total     Peak  Runoff
                           Precip      Runon       Evap      Infil     Runoff      Runoff   Runoff   Coeff
  Subcatchment                 mm         mm         mm         mm         mm    10^6 ltr      CMS
  --------------------------------------------------------------------------------------------------------
  S0                         5.84       0.00       0.00       5.07       0.57        0.00     0.00   0.097
  S1                         5.84       0.00       0.00       2.65       2.31        0.23     0.07   0.396
  S2                         6.35       0.00       0.00       2.02       3.23        0.56     0.19   0.509
  S3                         5.84       0.00       0.00       3.86       1.45        0.05     0.04   0.249
  S4                         5.84       0.00       0.00       2.85       2.18        0.22     0.18   0.374
  S6                         6.35       0.00       0.00       1.13       3.90        0.07     0.02   0.613
  S7                         6.35       0.00       0.00       1.39       3.21        1.26     0.37   0.506
  S8                         6.35       0.00       0.00       1.13       3.90        0.00     0.00   0.615
  S9                         6.35       0.00       0.00       1.84       3.38        0.00     0.00   0.532
  S10                        6.35       0.00       0.00       1.95       3.29        0.01     0.00   0.519
  S11                        6.35       0.00       0.00       5.02       1.00        0.00     0.00   0.157
  S12                        6.35       0.00       0.00       2.18       3.13        0.00     0.00   0.493
  S13                        6.35       0.00       0.00       2.42       2.93        0.22     0.07   0.461
  S14                        6.35       0.00       0.00       4.48       1.40        0.01     0.00   0.221
  S16                        6.35       0.00       0.00       2.74       1.01        0.06     0.01   0.159
  S17                        6.35       0.00       0.00       2.12       3.15        0.61     0.20   0.496
  S18                        6.35       0.00       0.00       1.48       3.65        0.00     0.00   0.575
  S19                        6.35       0.00       0.00       3.51       2.12        0.05     0.02   0.334
  S20                        6.35       0.00       0.00       2.28       3.05        0.02     0.01   0.480
  S21                        6.35       0.00       0.00       4.57       1.72        0.92     0.21   0.271
  S22                        6.35       0.00       0.00       1.77       3.42        0.00     0.00   0.539
  S23                        6.35       0.00       0.00       3.87       1.86        0.03     0.01   0.292
  S24                        6.35       0.00       0.00       3.66       2.01        0.04     0.01   0.317
  S25                        6.35       0.00       0.00       2.49       2.88        0.04     0.01   0.454
  S27                        6.35       0.00       0.00       2.84       2.63        0.01     0.01   0.415
  S28                        5.84       0.00       0.00       5.83       0.01        0.00     0.00   0.001
  S29                        5.84       0.00       0.00       5.80       0.03        0.00     0.00   0.005
  S30                        6.35       0.00       0.00       6.33       0.02        0.00     0.00   0.003
  S31                        6.35       0.00       0.00       6.34       0.01        0.00     0.00   0.001
  S32                        6.35       0.00       0.00       4.70       1.24        0.01     0.00   0.196
  S33                        6.35       0.00       0.00       1.60       3.55        0.04     0.02   0.559
  S34                        6.35       0.00       0.00       4.21       1.10        0.39     0.12   0.172
  S35                        6.35       0.00       0.00       3.64       2.03        0.01     0.00   0.320
  S36                        6.35       0.00       0.00       5.07       0.96        0.01     0.01   0.151
  S37                        6.35       0.00       0.00       1.92       3.32        0.02     0.01   0.522
  S39                        6.35       0.00       0.00       3.79       1.91        0.28     0.10   0.301
  S40                        6.35       0.00       0.00       4.45       1.42        0.03     0.01   0.224
  S41                        6.35       0.00       0.00       2.26       3.06        0.42     0.14   0.481
  S42                        6.35       0.00       0.00       2.65       2.76        0.28     0.10   0.435
  S43                        6.35       0.00       0.00       4.76       1.19        0.02     0.01   0.187
  S44                        6.35       0.00       0.00       2.71       2.71        0.61     0.21   0.427
  S45                        8.13       0.00       0.00       4.59       2.90        0.00     0.00   0.356
  S47                        8.13       0.00       0.00       3.53       3.74        0.16     0.14   0.460
  S48                        8.13       0.00       0.00       4.18       3.24        0.01     0.01   0.399
  S49                        8.13       0.00       0.00       3.68       3.58        0.67     0.49   0.440
  S51                        8.13       0.00       0.00       6.99       0.93        0.01     0.01   0.115
  S52                        8.13       0.00       0.00       4.00       3.35        0.22     0.20   0.412
  S53                        8.13       0.00       0.00       3.85       3.45        0.48     0.37   0.424
  S54                        8.13       0.00       0.00       4.89       2.60        0.25     0.07   0.319
  S55                        8.13       0.00       0.00       4.01       3.30        0.54     0.16   0.406
  S56                        8.13       0.00       0.00       5.91       1.79        0.00     0.00   0.220
  S57                        8.13       0.00       0.00       3.49       3.73        0.04     0.01   0.459
  S58                        8.13       0.00       0.00       4.34       3.04        0.12     0.04   0.373
  S59                        8.13       0.00       0.00       7.01       0.90        0.02     0.01   0.110
  S60                        8.13       0.00       0.00       5.81       1.86        0.05     0.01   0.229
  S61                        8.13       0.00       0.00       7.16       0.77        0.01     0.00   0.095
  S62                        8.13       0.00       0.00       6.68       1.18        0.03     0.03   0.145
  S63                        6.35       0.00       0.00       5.35       0.75        0.01     0.01   0.118
  S64                        6.35       0.00       0.00       2.91       2.58        0.04     0.02   0.406
  S65                        6.35       0.00       0.00       4.25       1.57        0.26     0.09   0.247
  
  
  ****************************
  Subcatchment Washoff Summary
  ****************************
  
  --------------------------------------------------------------
                                 TSS            TP           TDP
  Subcatchment                    kg            kg            kg
  --------------------------------------------------------------
  S0                           0.377         0.000         0.000
  S1                         187.840         0.011         0.112
  S2                         272.212         0.065         0.250
  S3                          23.399         0.011         0.034
  S4                         155.170         0.035         0.138
  S6                          25.472         0.001         0.014
  S7                         444.601         1.181         0.296
  S8                           0.310         0.000         0.001
  S9                           0.358         0.000         0.001
  S10                          3.710         0.004         0.009
  S11                          0.362         0.000         0.001
  S12                          0.205         0.000         0.000
  S13                         95.955         0.010         0.066
  S14                          9.411         0.004         0.013
  S16                         50.667         0.082         0.141
  S17                        325.194         0.072         0.290
  S18                          0.370         0.000         0.001
  S19                         49.724         0.010         0.044
  S20                          8.042         0.006         0.015
  S21                       1335.090         0.419         0.266
  S22                          2.421         0.002         0.006
  S23                         31.470         0.002         0.023
  S24                         26.043         0.009         0.031
  S25                         28.031         0.002         0.019
  S27                          8.753         0.006         0.016
  S28                          0.000         0.000         0.000
  S29                          0.000         0.000         0.000
  S30                          0.000         0.000         0.000
  S31                          0.000         0.000         0.000
  S32                         10.026         0.000         0.006
  S33                         20.487         0.011         0.029
  S34                       1048.496         0.223         0.117
  S35                          6.541         0.003         0.009
  S36                         26.928         0.000         0.016
  S37                         11.004         0.004         0.013
  S39                        267.720         0.052         0.240
  S40                         46.837         0.004         0.034
  S41                        206.321         0.072         0.230
  S42                        204.413         0.050         0.190
  S43                         43.718         0.000         0.027
  S44                        445.552         0.102         0.406
  S45                          0.672         0.001         0.001
  S47                         62.489         0.027         0.080
  S48                          4.239         0.003         0.008
  S49                        338.326         0.086         0.321
  S51                         21.419         0.001         0.013
  S52                        113.842         0.035         0.118
  S53                        216.968         0.068         0.220
  S54                        194.071         0.045         0.185
  S55                        329.091         0.067         0.288
  S56                          0.088         0.000         0.000
  S57                         22.541         0.000         0.012
  S58                         71.392         0.025         0.079
  S59                         38.802         0.013         0.039
  S60                         49.673         0.003         0.037
  S61                         17.341         0.003         0.013
  S62                         47.571         0.002         0.031
  S63                         24.818         0.000         0.014
  S64                         26.795         0.001         0.018
  S65                        306.417         0.083         0.312
  --------------------------------------------------------------
  System                    7309.791         2.917         4.894
  
  
  ******************
  Node Depth Summary
  ******************
  
  ---------------------------------------------------------------------------------
                                 Average  Maximum  Maximum  Time of Max    Reported
                                   Depth    Depth      HGL   Occurrence   Max Depth
  Node                 Type       Meters   Meters   Meters  days hr:min      Meters
  ---------------------------------------------------------------------------------
  FID1936              JUNCTION     0.15     0.41  1376.71     0  04:05        0.13
  FID1955              JUNCTION     0.17     0.34  1376.26     0  04:15        0.10
  FID1960              JUNCTION     0.15     0.28  1376.14     0  04:15        0.09
  FID1965              JUNCTION     0.15     0.27  1376.57     0  04:15        0.08
  FID1968              JUNCTION     0.13     0.21  1376.61     0  04:14        0.07
  FID2239              JUNCTION     0.15     0.30  1374.81     0  03:30        0.09
  FID2241              JUNCTION     0.13     0.20  1373.33     0  04:05        0.06
  FID2242              JUNCTION     0.13     0.22  1374.26     0  04:05        0.07
  FID2244              JUNCTION     0.13     0.20  1374.56     0  03:30        0.06
  FID2440              JUNCTION     0.38     0.62  1374.86     0  04:10        0.19
  FID2442              JUNCTION     0.00     0.00  1375.27     0  00:00        0.00
  FID2446              JUNCTION     0.16     0.61  1376.41     0  04:05        0.19
  FID2447              JUNCTION     0.15     0.50  1376.20     0  04:05        0.15
  FID2455              JUNCTION     0.29     0.57  1374.56     0  04:20        0.17
  FID2711              JUNCTION     0.13     0.25  1370.43     0  03:50        0.08
  FID2719              JUNCTION     0.17     0.91  1371.01     0  03:49        0.27
  FID2720              JUNCTION     0.16     0.40  1370.60     0  04:05        0.12
  FID2824              JUNCTION     0.12     0.18  1371.46     0  03:55        0.06
  FID2827              JUNCTION     0.13     0.24  1371.54     0  03:55        0.07
  FID2828              JUNCTION     0.13     0.23  1371.55     0  04:10        0.07
  FID2832              JUNCTION     0.16     0.32  1370.92     0  04:10        0.10
  FID2833              JUNCTION     0.21     0.49  1371.11     0  04:10        0.15
  FID2839              JUNCTION     0.19     0.37  1371.57     0  04:20        0.11
  FID2873              JUNCTION     0.16     0.30  1371.00     0  03:55        0.09
  FID2964              JUNCTION     0.16     0.31  1371.09     0  04:36        0.09
  FID2965              JUNCTION     0.41     0.83  1371.09     0  04:37        0.25
  FID4584              JUNCTION     0.13     0.31  1371.65     0  04:10        0.09
  FID5068              JUNCTION     0.13     0.20  1375.58     0  03:30        0.06
  FID5072              JUNCTION     0.47     0.79  1374.08     0  04:20        0.24
  FID5140              JUNCTION     0.15     0.27  1373.49     0  04:05        0.08
  FID5435              JUNCTION     0.16     0.26  1373.01     0  04:05        0.08
  FID5437              JUNCTION     0.12     0.18  1373.13     0  03:30        0.05
  FID5503              JUNCTION     0.12     0.16  1371.49     0  03:51        0.05
  FID5504              JUNCTION     0.15     0.26  1371.62     0  04:10        0.08
  FID5527              JUNCTION     0.14     0.22  1372.72     0  04:10        0.07
  FID5568              JUNCTION     0.45     0.80  1373.19     0  04:29        0.24
  FID5784              JUNCTION     0.46     0.81  1372.80     0  04:31        0.25
  FID5785              JUNCTION     0.14     0.25  1374.68     0  04:05        0.08
  AFID6926             JUNCTION     0.15     0.26  1370.06     0  04:15        0.08
  AFID7360             JUNCTION     0.47     0.91  1371.04     0  04:37        0.28
  AFID7363             JUNCTION     0.45     0.89  1371.06     0  04:37        0.27
  AFID7376             JUNCTION     0.19     0.42  1371.65     0  04:10        0.13
  AFID7377             JUNCTION     0.38     0.71  1371.39     0  04:34        0.22
  AFID7705             JUNCTION     0.48     0.59  1375.56     0  04:15        0.18
  AFID7706             JUNCTION     0.54     0.64  1375.56     0  04:15        0.20
  AFID7792             JUNCTION     0.18     0.40  1375.20     0  04:05        0.12
  AFID8223             JUNCTION     0.46     0.81  1372.81     0  04:31        0.25
  J1                   JUNCTION     0.70     0.73  1375.72     0  04:15        0.22
  FID4901              JUNCTION     0.43     0.52  1375.59     0  04:15        0.16
  J9                   JUNCTION     0.59     0.62  1375.71     0  04:15        0.19
  J11                  JUNCTION     0.44     0.47  1375.68     0  04:16        0.14
  J12                  JUNCTION     0.43     0.50  1375.62     0  04:15        0.15
  J13                  JUNCTION     0.43     0.52  1375.59     0  04:15        0.16
  FID4902              JUNCTION     0.45     0.54  1375.59     0  04:15        0.16
  J14                  JUNCTION     0.36     0.52  1375.44     0  04:05        0.16
  J15                  JUNCTION     0.34     0.54  1375.21     0  04:06        0.17
  J16                  JUNCTION     0.35     0.55  1375.19     0  04:06        0.17
  FID2449              JUNCTION     0.38     0.62  1374.94     0  04:10        0.19
  J17                  JUNCTION     0.28     0.56  1374.54     0  04:20        0.17
  J19                  JUNCTION     0.41     0.74  1374.29     0  04:22        0.23
  FID5069              JUNCTION     0.49     0.82  1374.08     0  04:21        0.25
  FID5139              JUNCTION     0.46     0.81  1373.16     0  04:29        0.25
  J24                  JUNCTION     0.46     0.81  1373.17     0  04:29        0.25
  FID4984              JUNCTION     0.48     0.83  1372.79     0  04:31        0.25
  FID2669              JUNCTION     0.35     0.70  1369.14     0  04:39        0.21
  FID2712              JUNCTION     0.37     0.75  1369.94     0  04:36        0.23
  FID2718              JUNCTION     0.37     0.76  1370.00     0  04:36        0.23
  FID2838              JUNCTION     0.54     0.99  1370.93     0  04:35        0.30
  FID2825              JUNCTION     0.59     1.06  1370.97     0  04:36        0.32
  FID2823              JUNCTION     0.64     1.12  1370.99     0  04:36        0.34
  FID5505              JUNCTION     0.53     0.99  1371.02     0  04:36        0.30
  FID5436              JUNCTION     0.49     0.83  1372.15     0  04:31        0.25
  FID5438              JUNCTION     0.42     0.76  1372.19     0  04:32        0.23
  J49                  JUNCTION     0.47     0.56  1375.58     0  04:15        0.17
  J50                  JUNCTION     0.51     0.61  1375.57     0  04:15        0.18
  J51                  JUNCTION     0.56     0.67  1375.56     0  04:15        0.20
  J52                  JUNCTION     0.57     0.68  1375.56     0  04:15        0.21
  J53                  JUNCTION     0.36     0.52  1375.44     0  04:05        0.16
  J54                  JUNCTION     0.37     0.50  1375.45     0  04:05        0.15
  J55                  JUNCTION     0.41     0.52  1375.54     0  04:15        0.16
  J56                  JUNCTION     0.39     0.50  1375.52     0  04:09        0.15
  J57                  JUNCTION     0.37     0.48  1375.50     0  04:07        0.15
  J58                  JUNCTION     0.37     0.49  1375.47     0  04:06        0.15
  FID1935              JUNCTION     0.37     0.53  1375.42     0  04:05        0.16
  J59                  JUNCTION     0.37     0.53  1375.40     0  04:05        0.16
  J60                  JUNCTION     0.36     0.52  1375.34     0  04:06        0.16
  J61                  JUNCTION     0.34     0.52  1375.28     0  04:07        0.16
  J62                  JUNCTION     0.33     0.51  1375.26     0  04:07        0.16
  J63                  JUNCTION     0.34     0.54  1375.23     0  04:06        0.17
  J64                  JUNCTION     0.33     0.54  1375.15     0  04:07        0.16
  J65                  JUNCTION     0.30     0.52  1375.10     0  04:08        0.16
  J66                  JUNCTION     0.38     0.61  1374.83     0  04:10        0.19
  J67                  JUNCTION     0.37     0.61  1374.76     0  04:11        0.18
  J68                  JUNCTION     0.36     0.59  1374.66     0  04:12        0.18
  J69                  JUNCTION     0.49     0.79  1374.51     0  04:20        0.24
  J70                  JUNCTION     0.47     0.77  1374.42     0  04:21        0.24
  J71                  JUNCTION     0.45     0.76  1374.36     0  04:21        0.23
  J72                  JUNCTION     0.48     0.80  1374.15     0  04:22        0.24
  J73                  JUNCTION     0.49     0.82  1374.04     0  04:21        0.25
  J74                  JUNCTION     0.50     0.82  1373.80     0  04:24        0.25
  J75                  JUNCTION     0.50     0.82  1373.66     0  04:25        0.25
  J76                  JUNCTION     0.46     0.81  1373.15     0  04:30        0.25
  J77                  JUNCTION     0.46     0.81  1373.02     0  04:30        0.25
  J78                  JUNCTION     0.46     0.81  1372.88     0  04:30        0.25
  J79                  JUNCTION     0.46     0.81  1372.82     0  04:31        0.25
  J80                  JUNCTION     0.40     0.73  1372.22     0  04:32        0.22
  J81                  JUNCTION     0.48     0.80  1371.80     0  04:34        0.24
  J82                  JUNCTION     0.47     0.79  1371.72     0  04:35        0.24
  J83                  JUNCTION     0.40     0.74  1371.54     0  04:35        0.23
  J84                  JUNCTION     0.36     0.67  1371.31     0  04:35        0.20
  J85                  JUNCTION     0.36     0.70  1371.22     0  04:36        0.21
  J86                  JUNCTION     0.38     0.76  1371.14     0  04:37        0.23
  J87                  JUNCTION     0.44     0.88  1371.07     0  04:37        0.27
  J88                  JUNCTION     0.51     0.97  1371.02     0  04:36        0.30
  J89                  JUNCTION     0.55     1.02  1371.01     0  04:36        0.31
  J90                  JUNCTION     0.51     0.97  1370.92     0  04:35        0.29
  J91                  JUNCTION     0.51     0.97  1370.85     0  04:35        0.29
  J92                  JUNCTION     0.51     0.97  1370.80     0  04:36        0.29
  J93                  JUNCTION     0.51     0.96  1370.69     0  04:36        0.29
  J94                  JUNCTION     0.51     0.96  1370.62     0  04:35        0.29
  J95                  JUNCTION     0.51     0.96  1370.60     0  04:35        0.29
  J96                  JUNCTION     0.50     0.95  1370.51     0  04:36        0.29
  J97                  JUNCTION     0.50     0.94  1370.44     0  04:36        0.29
  J98                  JUNCTION     0.49     0.93  1370.38     0  04:37        0.28
  J99                  JUNCTION     0.48     0.91  1370.31     0  04:37        0.28
  J100                 JUNCTION     0.47     0.89  1370.25     0  04:37        0.27
  J101                 JUNCTION     0.45     0.86  1370.18     0  04:37        0.26
  J102                 JUNCTION     0.37     0.76  1370.03     0  04:36        0.23
  J103                 JUNCTION     0.37     0.75  1369.98     0  04:36        0.23
  J104                 JUNCTION     0.36     0.74  1369.90     0  04:36        0.22
  J105                 JUNCTION     0.36     0.72  1369.84     0  04:36        0.22
  J106                 JUNCTION     0.35     0.69  1369.77     0  04:37        0.21
  J107                 JUNCTION     0.35     0.69  1369.63     0  04:37        0.21
  J108                 JUNCTION     0.35     0.69  1369.49     0  04:38        0.21
  J109                 JUNCTION     0.35     0.69  1369.38     0  04:38        0.21
  J110                 JUNCTION     0.35     0.69  1369.28     0  04:38        0.21
  J111                 JUNCTION     0.35     0.70  1369.18     0  04:38        0.21
  J112                 JUNCTION     0.35     0.70  1369.02     0  04:39        0.21
  J113                 JUNCTION     0.35     0.70  1368.92     0  04:39        0.21
  J114                 JUNCTION     0.35     0.70  1368.81     0  04:40        0.21
  J115                 JUNCTION     0.35     0.70  1368.75     0  04:40        0.21
  J116                 JUNCTION     0.34     0.70  1368.68     0  04:40        0.21
  J117                 JUNCTION     0.34     0.69  1368.57     0  04:40        0.21
  J118                 JUNCTION     0.35     0.69  1368.46     0  04:40        0.21
  J119                 JUNCTION     0.35     0.69  1368.39     0  04:41        0.21
  J120                 JUNCTION     0.36     0.67  1368.27     0  04:41        0.20
  FID2451              JUNCTION     0.38     0.61  1374.89     0  04:10        0.19
  J121                 JUNCTION     0.37     0.71  1371.46     0  04:35        0.22
  J122                 JUNCTION     0.38     0.71  1371.43     0  04:34        0.22
  FID3706              JUNCTION     0.51     0.96  1370.70     0  04:36        0.29
  FID2831              JUNCTION     0.51     0.96  1370.59     0  04:35        0.29
  FID2689              OUTFALL      0.25     0.50  1368.00     0  04:41        0.15
  
  
  *******************
  Node Inflow Summary
  *******************
  
  -------------------------------------------------------------------------------------------------
                                  Maximum  Maximum                  Lateral       Total        Flow
                                  Lateral    Total  Time of Max      Inflow      Inflow     Balance
                                   Inflow   Inflow   Occurrence      Volume      Volume       Error
  Node                 Type           CMS      CMS  days hr:min    10^6 ltr    10^6 ltr     Percent
  -------------------------------------------------------------------------------------------------
  FID1936              JUNCTION     0.195    0.195     0  04:05       0.225       0.225       0.072
  FID1955              JUNCTION     0.161    0.161     0  04:15       0.538       0.538       0.032
  FID1960              JUNCTION     0.074    0.074     0  04:15       0.245       0.245       0.069
  FID1965              JUNCTION     0.037    0.037     0  04:15       0.124       0.124       0.141
  FID1968              JUNCTION     0.011    0.011     0  04:15      0.0372      0.0372       0.470
  FID2239              JUNCTION     0.014    0.014     0  03:30      0.0386      0.0386       1.421
  FID2241              JUNCTION     0.000    0.012     0  04:05           0      0.0362       0.476
  FID2242              JUNCTION     0.012    0.012     0  04:05      0.0364      0.0364       0.500
  FID2244              JUNCTION     0.007    0.007     0  03:30      0.0141      0.0141       1.250
  FID2440              JUNCTION     0.000    1.271     0  04:09           0        15.3       0.228
  FID2442              JUNCTION     0.000    0.000     0  00:00           0           0       0.000 ltr
  FID2446              JUNCTION     0.140    0.140     0  04:05       0.159       0.159       1.045
  FID2447              JUNCTION     0.000    0.135     0  04:05           0       0.157      -0.105
  FID2455              JUNCTION     0.096    1.314     0  04:11       0.281        15.4       0.210
  FID2711              JUNCTION     0.000    0.042     0  04:05           0      0.0466       0.484
  FID2719              JUNCTION     0.178    0.178     0  04:05       0.217       0.217       0.189
  FID2720              JUNCTION     0.043    0.043     0  04:05      0.0469      0.0469       0.475
  FID2824              JUNCTION     0.000    0.003     0  03:55    0.000642     0.00959       1.789
  FID2827              JUNCTION     0.000    0.003     0  03:55    0.000727     0.00905       1.077
  FID2828              JUNCTION     0.003    0.003     0  04:10     0.00858     0.00858       3.080
  FID2832              JUNCTION     0.000    0.187     0  04:10           0       0.557       0.058
  FID2833              JUNCTION     0.187    0.187     0  04:10       0.557       0.557       0.044
  FID2839              JUNCTION     0.369    0.369     0  04:20        1.26        1.26       0.032
  FID2873              JUNCTION     0.025    0.025     0  04:10      0.0731      0.0731       0.815
  FID2964              JUNCTION     0.014    0.014     0  04:10      0.0564      0.0564       0.279
  FID2965              JUNCTION     0.000    1.709     0  04:36           0        16.4       0.278
  FID4584              JUNCTION     0.000    0.002     0  03:32           0    0.000905      17.759
  FID5068              JUNCTION     0.008    0.008     0  03:30      0.0173      0.0173       1.009
  FID5072              JUNCTION     0.098    1.440     0  04:20       0.283        15.5       0.198
  FID5140              JUNCTION     0.124    0.124     0  04:05       0.387       0.387       0.030
  FID5435              JUNCTION     0.213    0.213     0  04:05       0.921       0.921       0.020
  FID5437              JUNCTION     0.002    0.002     0  03:30     0.00473     0.00473       3.824
  FID5503              JUNCTION     0.000    0.000     0  03:27    0.000687    0.000687      33.703
  FID5504              JUNCTION     0.074    0.074     0  04:10       0.221       0.221       0.125
  FID5527              JUNCTION     0.016    0.016     0  04:10      0.0457      0.0457       0.383
  FID5568              JUNCTION     0.004    1.416     0  04:26     0.00677        15.2       0.702
  FID5784              JUNCTION     0.000    1.536     0  04:30           0        15.6       0.099
  FID5785              JUNCTION     0.000    0.013     0  04:05           0       0.038       0.313
  AFID6926             JUNCTION     0.074    0.074     0  04:15       0.226       0.226       0.077
  AFID7360             JUNCTION     0.000    1.710     0  04:38    0.000414        16.3       0.202
  AFID7363             JUNCTION     0.000    1.709     0  04:38           0        16.4       0.100
  AFID7376             JUNCTION     0.201    0.201     0  04:10       0.605       0.606      -0.001
  AFID7377             JUNCTION     0.000    1.716     0  04:31           0        16.5       0.109
  AFID7705             JUNCTION     0.000    0.724     0  04:15           0        14.1       0.268
  AFID7706             JUNCTION     0.000    0.651     0  04:16           0        13.9       0.259
  AFID7792             JUNCTION     0.206    0.206     0  04:05       0.612       0.612       0.025
  AFID8223             JUNCTION     0.000    1.531     0  04:30           0        15.6       0.022
  J1                   JUNCTION     0.667    0.667     0  04:15          21          21       0.151
  FID4901              JUNCTION     0.000    0.485     0  04:19           0        13.8       0.234
  J9                   JUNCTION     0.000    0.667     0  04:15           0          21       0.303
  J11                  JUNCTION     0.000    0.666     0  04:15           0        20.9       0.523
  J12                  JUNCTION     0.007    0.672     0  04:20      0.0228        20.8       0.571
  J13                  JUNCTION    -0.220    0.679     0  04:20       -7.13        20.7      -0.191
  FID4902              JUNCTION     0.000    0.495     0  04:15           0        13.8       0.367
  J14                  JUNCTION     0.375    0.902     0  04:05       0.481        14.3       0.192
  J15                  JUNCTION     0.487    1.253     0  04:05        0.67        14.9       0.157
  J16                  JUNCTION     0.008    1.237     0  04:05     0.00936        14.9       0.159
  FID2449              JUNCTION     0.001    1.136     0  04:08     0.00135        14.7       1.251
  J17                  JUNCTION     0.143    1.395     0  04:20       0.416        15.7       0.100
  J19                  JUNCTION     0.019    1.380     0  04:21      0.0362        15.6       1.220
  FID5069              JUNCTION     0.000    1.442     0  04:20           0        15.5       0.178
  FID5139              JUNCTION     0.000    1.493     0  04:27           0        15.5       0.053
  J24                  JUNCTION     0.017    1.419     0  04:27      0.0412        15.1       0.080
  FID4984              JUNCTION     0.000    1.541     0  04:30           0        15.6       0.816
  FID2669              JUNCTION     0.000    2.046     0  04:38           0        18.1       0.065
  FID2712              JUNCTION     0.000    2.024     0  04:35           0          18       0.081
  FID2718              JUNCTION     0.000    2.013     0  04:35           0          18       0.058
  FID2838              JUNCTION     0.000    1.922     0  04:34           0        17.5       0.173
  FID2825              JUNCTION     0.000    1.730     0  04:40           0        16.3       0.314
  FID2823              JUNCTION     0.000    1.727     0  04:39           0        16.4       0.482
  FID5505              JUNCTION     0.000    1.724     0  04:38           0        16.5       0.129
  FID5436              JUNCTION     0.000    1.667     0  04:30           0        16.3       0.798
  FID5438              JUNCTION     0.000    1.542     0  04:32           0        15.4       0.148
  J49                  JUNCTION     0.000    0.498     0  04:19           0        13.7       0.587
  J50                  JUNCTION     0.000    0.504     0  04:19    0.000275        13.6       1.029
  J51                  JUNCTION     0.000    0.515     0  04:18           0        13.5       0.830
  J52                  JUNCTION     0.000    0.528     0  04:33           0        13.4       0.246
  J53                  JUNCTION     0.000    0.740     0  04:15           0        13.8       0.209
  J54                  JUNCTION     0.000    0.735     0  04:15           0        13.9       0.310
  J55                  JUNCTION     0.000    0.724     0  04:15           0        14.1       0.297
  J56                  JUNCTION     0.000    0.724     0  04:15           0          14       0.318
  J57                  JUNCTION     0.000    0.726     0  04:15           0          14       0.397
  J58                  JUNCTION     0.002    0.730     0  04:15      0.0067        13.9       0.425
  FID1935              JUNCTION     0.000    1.079     0  04:05           0        14.5       0.246
  J59                  JUNCTION     0.000    1.056     0  04:05           0        14.4       0.342
  J60                  JUNCTION     0.008    1.019     0  04:05     0.00942        14.4       0.536
  J61                  JUNCTION     0.000    0.951     0  04:06           0        14.3       0.359
  J62                  JUNCTION     0.000    0.940     0  04:07           0        14.3       0.161
  J63                  JUNCTION     0.000    0.943     0  04:07           0        14.2       0.164
  J64                  JUNCTION     0.000    1.219     0  04:05           0        14.9       0.164
  J65                  JUNCTION     0.026    1.219     0  04:05        0.03        14.9       0.951
  J66                  JUNCTION     0.000    1.266     0  04:09           0        15.2       0.287
  J67                  JUNCTION     0.000    1.262     0  04:10           0        15.2       0.428
  J68                  JUNCTION     0.011    1.260     0  04:10      0.0229        15.2       0.464
  J69                  JUNCTION     0.000    1.393     0  04:20           0        15.7       0.450
  J70                  JUNCTION     0.006    1.389     0  04:20      0.0115        15.7       0.576
  J71                  JUNCTION     0.000    1.381     0  04:21           0        15.6       0.415
  J72                  JUNCTION     0.011    1.376     0  04:22      0.0311        15.4       1.359
  J73                  JUNCTION     0.000    1.439     0  04:20           0        15.4       0.394
  J74                  JUNCTION     0.000    1.431     0  04:20           0        15.4       0.580
  J75                  JUNCTION     0.006    1.423     0  04:22       0.012        15.3       0.895
  J76                  JUNCTION     0.000    1.493     0  04:27           0        15.5       0.218
  J77                  JUNCTION     0.089    1.534     0  04:21       0.264        15.7       0.400
  J78                  JUNCTION     0.000    1.531     0  04:30           0        15.6       0.300
  J79                  JUNCTION     0.000    1.530     0  04:30           0        15.6       0.110
  J80                  JUNCTION     0.014    1.542     0  04:30      0.0305        15.5       0.668
  J81                  JUNCTION     0.002    1.665     0  04:31     0.00534        16.3       1.212
  J82                  JUNCTION     0.000    1.655     0  04:34           0        16.1       0.479
  J83                  JUNCTION     0.000    1.654     0  04:35           0          16       0.356
  J84                  JUNCTION     0.000    1.715     0  04:31           0        16.5       0.189
  J85                  JUNCTION     0.000    1.712     0  04:32           0        16.5       0.352
  J86                  JUNCTION     0.000    1.707     0  04:34           0        16.4       0.362
  J87                  JUNCTION     0.003    1.709     0  04:37     0.00821        16.4       0.155
  J88                  JUNCTION     0.000    1.711     0  04:38           0        16.3       0.235
  J89                  JUNCTION     0.000    1.724     0  04:38           0        16.5       0.354
  J90                  JUNCTION     0.000    1.922     0  04:34           0        17.5       0.122
  J91                  JUNCTION     0.000    1.921     0  04:34           0        17.5       0.170
  J92                  JUNCTION     0.000    1.921     0  04:35    3.45e-06        17.5       0.211
  J93                  JUNCTION     0.000    1.926     0  04:36           0        17.5       0.113
  J94                  JUNCTION     0.000    1.926     0  04:36    6.09e-06        17.5       0.129
  J95                  JUNCTION     0.000    1.926     0  04:36           0        17.4       0.049
  J96                  JUNCTION     0.000    1.969     0  04:34           0          18       0.181
  J97                  JUNCTION     0.000    1.967     0  04:35           0        17.9       0.155
  J98                  JUNCTION     0.000    1.966     0  04:35           0        17.9       0.136
  J99                  JUNCTION     0.000    1.965     0  04:36           0        17.9       0.116
  J100                 JUNCTION     0.000    1.965     0  04:37           0        17.9       0.098
  J101                 JUNCTION     0.000    1.965     0  04:37           0        17.8       0.113
  J102                 JUNCTION     0.000    1.965     0  04:38           0        17.8       0.088
  J103                 JUNCTION     0.000    2.012     0  04:35           0          18       0.066
  J104                 JUNCTION     0.000    2.022     0  04:35           0          18       0.087
  J105                 JUNCTION     0.000    2.020     0  04:35           0          18       0.107
  J106                 JUNCTION     0.000    2.018     0  04:36           0          18       0.120
  J107                 JUNCTION     0.000    2.017     0  04:36           0          18       0.123
  J108                 JUNCTION     0.000    2.015     0  04:37    2.13e-05        17.9       0.111
  J109                 JUNCTION     0.000    2.014     0  04:37           0        17.9       0.094
  J110                 JUNCTION     0.000    2.013     0  04:38           0        17.9       0.091
  J111                 JUNCTION     0.000    2.012     0  04:38    0.000185        17.9       0.067
  J112                 JUNCTION     0.000    2.045     0  04:38           0        18.1       0.094
  J113                 JUNCTION     0.000    2.044     0  04:39           0        18.1       0.091
  J114                 JUNCTION     0.000    2.044     0  04:39           0        18.1       0.078
  J115                 JUNCTION     0.000    2.043     0  04:39           0          18       0.057
  J116                 JUNCTION     0.000    2.043     0  04:39    6.15e-06          18       0.075
  J117                 JUNCTION     0.000    2.042     0  04:40           0          18       0.093
  J118                 JUNCTION     0.000    2.042     0  04:40           0          18       0.081
  J119                 JUNCTION     0.000    2.042     0  04:40           0          18       0.078
  J120                 JUNCTION     0.000    2.041     0  04:41           0          18       0.096
  FID2451              JUNCTION     0.000    1.124     0  04:09           0        14.7       0.227
  J121                 JUNCTION     0.006    1.655     0  04:36      0.0161          16       0.108
  J122                 JUNCTION     0.000    1.655     0  04:36     0.00073        15.9       0.095
  FID3706              JUNCTION     0.000    1.926     0  04:35           0        17.5       0.168
  FID2831              JUNCTION     0.000    1.970     0  04:33           0          18       0.106
  FID2689              OUTFALL      0.000    2.041     0  04:41           0          18       0.000
  
  
  **********************
  Node Surcharge Summary
  **********************
  
  Surcharging occurs when water rises above the top of the highest conduit.
  ---------------------------------------------------------------------
                                               Max. Height   Min. Depth
                                   Hours       Above Crown    Below Rim
  Node                 Type      Surcharged         Meters       Meters
  ---------------------------------------------------------------------
  FID2446              JUNCTION        0.10          0.077        0.000
  FID2719              JUNCTION        0.07          0.381        0.000
  
  
  *********************
  Node Flooding Summary
  *********************
  
  Flooding refers to all water that overflows a node, whether it ponds or not.
  --------------------------------------------------------------------------
                                                             Total   Maximum
                                 Maximum   Time of Max       Flood    Ponded
                        Hours       Rate    Occurrence      Volume     Depth
  Node                 Flooded       CMS   days hr:min    10^6 ltr    Meters
  --------------------------------------------------------------------------
  FID2446                 0.10     0.008      0  04:03       0.002     0.077
  
  
  ***********************
  Outfall Loading Summary
  ***********************
  
  -----------------------------------------------------------------------------------------------------
                         Flow       Avg       Max       Total         Total         Total         Total
                         Freq      Flow      Flow      Volume           TSS            TP           TDP
  Outfall Node           Pcnt       CMS       CMS    10^6 ltr            kg            kg            kg
  -----------------------------------------------------------------------------------------------------
  FID2689               76.82     0.954     2.041      17.962      7268.175         3.236         5.251
  -----------------------------------------------------------------------------------------------------
  System                76.82     0.954     2.041      17.962      7268.175         3.236         5.251
  
  
  ********************
  Link Flow Summary
  ********************
  
  -----------------------------------------------------------------------------
                                 Maximum  Time of Max   Maximum    Max/    Max/
                                  |Flow|   Occurrence   |Veloc|    Full    Full
  Link                 Type          CMS  days hr:min     m/sec    Flow   Depth
  -----------------------------------------------------------------------------
  FID1123              CONDUIT     0.025     0  04:10      0.78    0.46    0.67
  FID1139              CONDUIT     0.178     0  04:05      1.64    1.41    0.90
  FID1148              CONDUIT     0.187     0  04:10      1.03    0.51    0.32
  FID1149              CONDUIT     0.187     0  04:10      2.15    0.07    0.34
  FID3364              CONDUIT     0.201     0  04:10      0.99    0.18    0.42
  FID3671              CONDUIT     0.011     0  04:14      1.06    0.09    0.20
  FID3672              CONDUIT     0.037     0  04:15      1.48    0.30    0.38
  FID3762              CONDUIT     0.074     0  04:15      1.85    0.24    0.48
  FID3765              CONDUIT     0.161     0  04:15      2.67    0.50    0.58
  FID4112              CONDUIT     0.195     0  04:05      1.65    0.38    0.43
  FID4186              CONDUIT     0.012     0  04:05      0.91    0.07    0.18
  FID4187              CONDUIT     0.012     0  04:05      1.44    0.04    0.13
  FID4201              CONDUIT     0.135     0  04:05      1.21    1.53    0.96
  FID4202              CONDUIT     0.134     0  04:05      1.36    1.08    0.81
  FID4203              CONDUIT     0.000     0  00:00      0.00    0.00    0.33
  FID4299              CONDUIT     0.008     0  03:30      0.92    0.03    0.13
  FID4372              CONDUIT     0.123     0  04:05      0.61    0.02    0.35
  FID4498              CONDUIT     0.014     0  04:10      0.43    0.04    0.67
  FID4806              CONDUIT     0.213     0  04:05      5.01    0.03    0.12
  FID4807              CONDUIT     0.002     0  03:30      0.70    0.01    0.09
  FID4882              CONDUIT     0.000     0  03:51      0.02    0.00    0.52
  FID4884              CONDUIT     0.074     0  04:10      1.81    0.03    0.16
  FID4914              CONDUIT     0.016     0  04:10      0.23    0.06    0.58
  FID4915              CONDUIT     0.003     0  04:10      0.23    0.09    0.21
  FID4916              CONDUIT     0.003     0  03:55      0.28    0.09    0.16
  FID4917              CONDUIT     0.003     0  03:55      0.82    0.01    0.54
  FID5307              CONDUIT     0.013     0  04:05      0.44    0.26    0.32
  FID5308              CONDUIT     0.007     0  03:30      1.15    0.04    0.14
  FID5312              CONDUIT     0.013     0  04:05      0.60    0.09    0.19
  FID5865              CONDUIT     0.369     0  04:20      3.19    0.18    0.36
  C9                   CHANNEL     0.667     0  04:15      0.66    0.07    0.48
  C12                  CHANNEL     0.668     0  04:20      0.46    0.29    0.57
  C13                  CHANNEL     0.679     0  04:20      0.62    0.30    0.59
  C14                  CHANNEL     0.465     0  04:34      0.69    0.20    0.60
  C52                  CONDUIT     0.206     0  04:05      1.47    0.35    0.57
  C130                 CONDUIT     0.042     0  04:05      0.63    0.87    0.43
  C131                 CONDUIT     0.042     0  04:05      1.65    0.10    0.44
  C139                 CONDUIT     0.002     0  03:32      0.09    0.02    0.55
  C191                 CHANNEL     0.498     0  04:19      0.48    0.22    0.64
  C193                 CHANNEL     0.515     0  04:18      0.38    0.23    0.74
  C194                 CHANNEL     0.528     0  04:33      0.30    0.23    0.78
  C195                 CHANNEL     0.532     0  04:33      0.35    0.10    0.63
  C196                 CONDUIT     0.488     0  04:19      0.45    0.35    0.67
  C197                 CONDUIT     0.652     0  04:15      0.24    0.31    0.88
  C198                 CHANNEL     0.724     0  04:15      0.31    0.14    0.52
  C199                 CHANNEL     0.724     0  04:15      0.32    3.16    0.61
  C200                 CHANNEL     0.726     0  04:15      0.34    2.86    0.58
  C201                 CHANNEL     0.729     0  04:15      0.35    0.22    0.48
  C202                 CHANNEL     0.735     0  04:15      0.35    0.22    0.50
  C203                 CHANNEL     0.740     0  04:15      0.35    0.22    0.51
  C204                 CHANNEL     0.745     0  04:15      0.51    0.22    0.52
  C205                 CONDUIT     0.884     0  04:05      0.35    0.61    0.64
  C206                 CHANNEL     1.056     0  04:05      0.43    0.31    0.53
  C207                 CHANNEL     1.014     0  04:05      0.42    0.30    0.52
  C208                 CHANNEL     0.951     0  04:06      0.40    0.28    0.52
  C209                 CHANNEL     0.940     0  04:07      0.40    0.28    0.51
  C210                 CHANNEL     0.943     0  04:07      0.48    0.29    0.61
  C211                 CHANNEL     0.951     0  04:08      0.47    0.34    0.55
  C212                 CONDUIT     1.230     0  04:05      0.47    0.71    0.67
  C213                 CHANNEL     1.219     0  04:05      0.60    0.44    0.55
  C214                 CHANNEL     1.202     0  04:05      0.63    0.43    0.54
  C215                 CONDUIT     1.136     0  04:08      0.41    0.66    0.69
  C216                 CONDUIT     1.113     0  04:09      0.51    0.83    0.58
  C217                 CONDUIT     1.122     0  04:09      0.43    0.45    0.45
  C218                 CHANNEL     1.266     0  04:09      0.53    0.46    0.63
  C219                 CHANNEL     1.262     0  04:10      0.54    0.46    0.62
  C220                 CHANNEL     1.256     0  04:10      0.54    0.45    0.61
  C221                 CHANNEL     1.255     0  04:11      0.57    0.45    0.59
  C222                 CONDUIT     1.310     0  04:11      0.55    0.88    0.69
  C223                 CHANNEL     1.393     0  04:20      1.38    0.17    0.60
  C224                 CHANNEL     1.386     0  04:20      0.51    0.90    0.91
  C225                 CHANNEL     1.381     0  04:21      0.53    0.90    0.89
  C226                 CHANNEL     1.376     0  04:21      0.54    0.89    0.87
  C227                 CONDUIT     1.371     0  04:23      0.42    1.11    0.93
  C228                 CHANNEL     1.381     0  04:23      0.67    0.56    0.74
  C229                 CONDUIT     1.436     0  04:20      0.34    0.25    0.54
  C230                 CHANNEL     1.439     0  04:20      0.67    0.59    0.76
  C231                 CHANNEL     1.431     0  04:20      0.67    0.58    0.76
  C232                 CHANNEL     1.423     0  04:22      0.67    0.58    0.76
  C233                 CHANNEL     1.416     0  04:26      0.67    0.58    0.75
  C234                 CONDUIT     1.415     0  04:25      0.51    0.58    0.59
  C235                 CHANNEL     1.419     0  04:27      0.68    0.58    0.75
  C236                 CHANNEL     1.493     0  04:27      0.67    0.71    0.84
  C237                 CHANNEL     1.492     0  04:28      0.67    0.71    0.84
  C238                 CHANNEL     1.531     0  04:30      0.69    0.73    0.84
  C239                 CHANNEL     1.530     0  04:30      0.69    0.73    0.84
  C240                 CHANNEL     1.529     0  04:30      0.69    0.71    0.84
  C241                 CHANNEL     1.531     0  04:30      0.76    0.73    0.84
  C242                 CONDUIT     1.536     0  04:30      0.51    0.54    0.67
  C243                 CHANNEL     1.539     0  04:31      0.73    0.74    0.81
  C244                 CHANNEL     1.541     0  04:32      0.94    0.25    0.48
  C245                 CONDUIT     1.542     0  04:33      0.61    0.42    0.62
  C246                 CHANNEL     1.660     0  04:31      0.59    0.53    0.71
  C247                 CHANNEL     1.655     0  04:34      0.61    0.53    0.70
  C248                 CHANNEL     1.654     0  04:35      0.64    0.53    0.67
  C249                 CHANNEL     1.654     0  04:36      2.75    0.67    0.69
  C250                 CONDUIT     1.655     0  04:36      0.73    0.61    0.56
  C251                 CONDUIT     1.655     0  04:36      0.74    0.61    0.56
  C252                 CHANNEL     1.715     0  04:31      2.05    0.69    0.65
  C253                 CHANNEL     1.712     0  04:32      0.84    0.39    0.65
  C254                 CHANNEL     1.707     0  04:34      1.56    0.39    0.69
  C255                 CHANNEL     1.705     0  04:36      1.87    0.39    0.75
  C256                 CHANNEL     1.709     0  04:37      3.88    0.39    0.81
  C257                 CHANNEL     1.709     0  04:38      2.03    0.39    0.84
  C258                 CONDUIT     1.710     0  04:38      0.60    0.63    0.70
  C259                 CHANNEL     1.711     0  04:38      0.50    0.39    0.89
  C260                 CHANNEL     1.712     0  04:38      0.49    0.39    0.93
  C261                 CHANNEL     1.724     0  04:38      0.58    0.39    0.95
  C262                 CHANNEL     1.727     0  04:39      1.34    0.39    0.98
  C263                 CHANNEL     1.730     0  04:40      0.52    0.40    0.69
  C264                 CONDUIT     1.732     0  04:40      0.55    0.90    0.75
  C265                 CHANNEL     1.922     0  04:34      0.60    0.44    0.62
  C266                 CHANNEL     1.921     0  04:34      0.64    0.38    0.67
  C267                 CHANNEL     1.921     0  04:35      0.64    0.38    0.67
  C268                 CHANNEL     1.920     0  04:36      0.64    0.38    0.67
  C269                 CHANNEL     1.926     0  04:36      0.89    0.38    0.67
  C270                 CHANNEL     1.926     0  04:36      0.64    0.38    0.67
  C271                 CHANNEL     1.926     0  04:36      0.65    0.38    0.67
  C272                 CHANNEL     1.927     0  04:37      0.65    0.38    0.67
  C273                 CHANNEL     1.969     0  04:34      0.67    0.39    0.67
  C274                 CHANNEL     1.967     0  04:35      0.68    0.39    0.66
  C275                 CHANNEL     1.966     0  04:35      0.69    0.39    0.65
  C276                 CHANNEL     1.965     0  04:36      0.71    0.39    0.64
  C277                 CHANNEL     1.965     0  04:37      0.74    0.38    0.63
  C278                 CHANNEL     1.965     0  04:37      0.78    0.38    0.61
  C279                 CHANNEL     1.965     0  04:38      0.91    0.39    0.57
  C280                 CHANNEL     1.967     0  04:38      0.75    0.67    0.77
  C281                 CHANNEL     2.012     0  04:35      0.76    0.68    0.77
  C282                 CHANNEL     2.010     0  04:35      0.77    0.68    0.76
  C283                 CHANNEL     2.022     0  04:35      0.79    0.69    0.75
  C284                 CHANNEL     2.020     0  04:35      0.80    0.69    0.74
  C285                 CHANNEL     2.018     0  04:36      0.83    0.69    0.72
  C286                 CHANNEL     2.017     0  04:36      0.94    0.49    0.71
  C287                 CHANNEL     2.015     0  04:37      0.94    0.49    0.71
  C288                 CHANNEL     2.014     0  04:37      0.93    0.49    0.71
  C289                 CHANNEL     2.013     0  04:38      0.93    0.49    0.71
  C290                 CHANNEL     2.012     0  04:38      0.93    0.49    0.71
  C291                 CHANNEL     2.012     0  04:38      0.92    0.49    0.71
  C292                 CHANNEL     2.045     0  04:38      0.94    0.50    0.71
  C293                 CHANNEL     2.044     0  04:39      0.94    0.50    0.71
  C294                 CHANNEL     2.044     0  04:39      0.94    0.50    0.71
  C295                 CHANNEL     2.043     0  04:39      0.94    0.50    0.71
  C296                 CHANNEL     2.043     0  04:39      0.94    0.50    0.71
  C297                 CHANNEL     2.042     0  04:40      0.94    0.50    0.71
  C298                 CHANNEL     2.042     0  04:40      0.95    0.50    0.71
  C299                 CHANNEL     2.042     0  04:40      0.96    0.50    0.70
  C300                 CHANNEL     2.041     0  04:41      0.98    0.50    0.69
  C301                 CHANNEL     2.041     0  04:41      1.48    0.36    0.45
  C302                 CHANNEL     0.666     0  04:15      0.57    0.10    0.43
  C303                 CHANNEL     0.504     0  04:19      0.43    0.22    0.68
  C353                 CONDUIT     0.074     0  04:15      1.74    0.03    0.12
  
  
  ***************************
  Flow Classification Summary
  ***************************
  
  -------------------------------------------------------------------------------------
                      Adjusted    ---------- Fraction of Time in Flow Class ---------- 
                       /Actual         Up    Down  Sub   Sup   Up    Down  Norm  Inlet 
  Conduit               Length    Dry  Dry   Dry   Crit  Crit  Crit  Crit  Ltd   Ctrl  
  -------------------------------------------------------------------------------------
  FID1123                 1.00   0.18  0.00  0.00  0.30  0.00  0.00  0.52  0.20  0.00
  FID1139                 1.00   0.16  0.00  0.00  0.18  0.00  0.00  0.65  0.12  0.00
  FID1148                 1.00   0.14  0.00  0.00  0.53  0.00  0.00  0.33  0.00  0.00
  FID1149                 1.00   0.15  0.00  0.00  0.46  0.05  0.00  0.34  0.38  0.00
  FID3364                 1.00   0.14  0.01  0.00  0.86  0.00  0.00  0.00  0.70  0.00
  FID3671                 1.00   0.22  0.00  0.00  0.00  0.00  0.00  0.78  0.00  0.00
  FID3672                 1.00   0.19  0.00  0.00  0.00  0.00  0.00  0.81  0.00  0.00
  FID3762                 1.00   0.01  0.16  0.00  0.71  0.11  0.00  0.00  0.67  0.00
  FID3765                 1.00   0.01  0.16  0.00  0.66  0.17  0.00  0.00  0.68  0.00
  FID4112                 1.00   0.16  0.00  0.00  0.00  0.00  0.00  0.84  0.00  0.00
  FID4186                 1.00   0.22  0.00  0.00  0.40  0.11  0.00  0.26  0.00  0.00
  FID4187                 1.00   0.24  0.00  0.00  0.00  0.00  0.00  0.76  0.00  0.00
  FID4201                 1.00   0.16  0.00  0.00  0.77  0.00  0.00  0.06  0.45  0.00
  FID4202                 1.00   0.19  0.00  0.00  0.00  0.00  0.00  0.81  0.00  0.00
  FID4203                 1.00   0.17  0.83  0.00  0.00  0.00  0.00  0.00  0.00  0.00
  FID4299                 1.00   0.23  0.00  0.00  0.00  0.00  0.00  0.77  0.00  0.00
  FID4372                 1.00   0.07  0.15  0.00  0.78  0.00  0.00  0.00  0.64  0.00
  FID4498                 1.00   0.15  0.00  0.00  0.85  0.00  0.00  0.01  0.58  0.00
  FID4806                 1.00   0.17  0.00  0.00  0.00  0.00  0.00  0.83  0.00  0.00
  FID4807                 1.00   0.24  0.00  0.00  0.00  0.00  0.00  0.76  0.00  0.00
  FID4882                 1.00   0.24  0.29  0.00  0.29  0.00  0.00  0.17  0.59  0.00
  FID4884                 1.00   0.15  0.00  0.00  0.19  0.03  0.00  0.63  0.15  0.00
  FID4914                 1.00   0.11  0.08  0.00  0.81  0.00  0.00  0.00  0.66  0.00
  FID4915                 1.00   0.24  0.00  0.00  0.75  0.00  0.00  0.01  0.49  0.00
  FID4916                 1.00   0.24  0.00  0.00  0.58  0.00  0.00  0.18  0.10  0.00
  FID4917                 1.00   0.25  0.00  0.00  0.42  0.00  0.00  0.33  0.31  0.00
  FID5307                 1.00   0.22  0.00  0.00  0.75  0.00  0.00  0.03  0.49  0.00
  FID5308                 1.00   0.23  0.00  0.00  0.00  0.00  0.00  0.77  0.00  0.00
  FID5312                 1.00   0.24  0.00  0.00  0.00  0.00  0.00  0.76  0.00  0.00
  FID5865                 1.00   0.15  0.00  0.00  0.16  0.13  0.00  0.56  0.20  0.00
  C9                      1.00   0.00  0.00  0.00  1.00  0.00  0.00  0.00  0.00  0.00
  C12                     1.00   0.00  0.00  0.00  1.00  0.00  0.00  0.00  0.00  0.00
  C13                     1.00   0.00  0.00  0.00  1.00  0.00  0.00  0.00  0.00  0.00
  C14                     1.00   0.00  0.00  0.00  1.00  0.00  0.00  0.00  0.00  0.00
  C52                     1.00   0.04  0.14  0.00  0.82  0.01  0.00  0.00  0.68  0.00
  C130                    1.00   0.22  0.00  0.00  0.54  0.00  0.00  0.25  0.00  0.00
  C131                    1.00   0.25  0.00  0.00  0.37  0.01  0.00  0.37  0.28  0.00
  C139                    1.00   0.14  0.46  0.00  0.39  0.00  0.01  0.00  0.49  0.00
  C191                    1.00   0.00  0.00  0.00  1.00  0.00  0.00  0.00  0.00  0.00
  C193                    1.00   0.00  0.00  0.00  1.00  0.00  0.00  0.00  0.00  0.00
  C194                    1.00   0.00  0.00  0.00  1.00  0.00  0.00  0.00  0.00  0.00
  C195                    1.00   0.01  0.00  0.00  0.99  0.00  0.00  0.00  0.00  0.00
  C196                    1.00   0.00  0.00  0.00  1.00  0.00  0.00  0.00  0.00  0.00
  C197                    1.00   0.01  0.00  0.00  0.99  0.00  0.00  0.00  0.00  0.00
  C198                    1.00   0.01  0.00  0.00  0.99  0.00  0.00  0.00  0.00  0.00
  C199                    1.00   0.01  0.00  0.00  0.99  0.00  0.00  0.00  0.00  0.00
  C200                    1.00   0.01  0.00  0.00  0.99  0.00  0.00  0.00  0.00  0.00
  C201                    1.00   0.01  0.00  0.00  0.99  0.00  0.00  0.00  0.00  0.00
  C202                    1.00   0.01  0.00  0.00  0.99  0.00  0.00  0.00  0.00  0.00
  C203                    1.00   0.01  0.00  0.00  0.99  0.00  0.00  0.00  0.00  0.00
  C204                    1.00   0.01  0.00  0.00  0.99  0.00  0.00  0.00  0.00  0.00
  C205                    1.00   0.02  0.00  0.00  0.98  0.00  0.00  0.00  0.00  0.00
  C206                    1.00   0.02  0.00  0.00  0.98  0.00  0.00  0.00  0.00  0.00
  C207                    1.00   0.02  0.00  0.00  0.98  0.00  0.00  0.00  0.00  0.00
  C208                    1.00   0.02  0.00  0.00  0.98  0.00  0.00  0.00  0.00  0.00
  C209                    1.00   0.02  0.00  0.00  0.98  0.00  0.00  0.00  0.00  0.00
  C210                    1.00   0.02  0.00  0.00  0.98  0.00  0.00  0.00  0.00  0.00
  C211                    1.00   0.02  0.00  0.00  0.98  0.00  0.00  0.00  0.00  0.00
  C212                    1.00   0.02  0.00  0.00  0.98  0.00  0.00  0.00  0.00  0.00
  C213                    1.00   0.02  0.00  0.00  0.98  0.00  0.00  0.00  0.00  0.00
  C214                    1.00   0.02  0.00  0.00  0.98  0.00  0.00  0.00  0.00  0.00
  C215                    1.00   0.03  0.00  0.00  0.97  0.00  0.00  0.00  0.71  0.00
  C216                    1.00   0.03  0.00  0.00  0.97  0.00  0.00  0.00  0.00  0.00
  C217                    1.00   0.03  0.00  0.00  0.97  0.00  0.00  0.00  0.00  0.00
  C218                    1.00   0.03  0.00  0.00  0.97  0.00  0.00  0.00  0.00  0.00
  C219                    1.00   0.03  0.00  0.00  0.97  0.00  0.00  0.00  0.00  0.00
  C220                    1.00   0.04  0.00  0.00  0.96  0.00  0.00  0.00  0.00  0.00
  C221                    1.00   0.04  0.00  0.00  0.96  0.00  0.00  0.00  0.00  0.00
  C222                    1.00   0.04  0.00  0.00  0.96  0.00  0.00  0.00  0.00  0.00
  C223                    1.00   0.04  0.00  0.00  0.96  0.00  0.00  0.00  0.01  0.00
  C224                    1.00   0.04  0.00  0.00  0.96  0.00  0.00  0.00  0.00  0.00
  C225                    1.00   0.04  0.00  0.00  0.96  0.00  0.00  0.00  0.00  0.00
  C226                    1.00   0.04  0.00  0.00  0.96  0.00  0.00  0.00  0.00  0.00
  C227                    1.00   0.05  0.00  0.00  0.95  0.00  0.00  0.00  0.00  0.00
  C228                    1.00   0.05  0.00  0.00  0.95  0.00  0.00  0.00  0.00  0.00
  C229                    1.00   0.05  0.00  0.00  0.95  0.00  0.00  0.00  0.00  0.00
  C230                    1.00   0.05  0.00  0.00  0.95  0.00  0.00  0.00  0.00  0.00
  C231                    1.00   0.06  0.00  0.00  0.94  0.00  0.00  0.00  0.01  0.00
  C232                    1.00   0.06  0.00  0.00  0.94  0.00  0.00  0.00  0.00  0.00
  C233                    1.00   0.06  0.00  0.00  0.94  0.00  0.00  0.00  0.00  0.00
  C234                    1.00   0.06  0.00  0.00  0.94  0.00  0.00  0.00  0.00  0.00
  C235                    1.00   0.06  0.00  0.00  0.94  0.00  0.00  0.00  0.00  0.00
  C236                    1.00   0.07  0.00  0.00  0.93  0.00  0.00  0.00  0.00  0.00
  C237                    1.00   0.07  0.00  0.00  0.93  0.00  0.00  0.00  0.00  0.00
  C238                    1.00   0.07  0.00  0.00  0.93  0.00  0.00  0.00  0.00  0.00
  C239                    1.00   0.07  0.00  0.00  0.93  0.00  0.00  0.00  0.00  0.00
  C240                    1.00   0.07  0.00  0.00  0.93  0.00  0.00  0.00  0.00  0.00
  C241                    1.00   0.07  0.00  0.00  0.93  0.00  0.00  0.00  0.00  0.00
  C242                    1.00   0.07  0.00  0.00  0.93  0.00  0.00  0.00  0.00  0.00
  C243                    1.00   0.07  0.00  0.00  0.93  0.00  0.00  0.00  0.00  0.00
  C244                    1.00   0.07  0.00  0.00  0.92  0.01  0.00  0.00  0.00  0.00
  C245                    1.00   0.08  0.00  0.00  0.92  0.00  0.00  0.00  0.00  0.00
  C246                    1.00   0.08  0.00  0.00  0.92  0.00  0.00  0.00  0.50  0.00
  C247                    1.00   0.09  0.00  0.00  0.91  0.00  0.00  0.00  0.00  0.00
  C248                    1.00   0.10  0.00  0.00  0.90  0.00  0.00  0.00  0.00  0.00
  C249                    1.00   0.11  0.00  0.00  0.89  0.00  0.00  0.00  0.00  0.00
  C250                    1.00   0.12  0.00  0.00  0.88  0.00  0.00  0.00  0.00  0.00
  C251                    1.00   0.13  0.00  0.00  0.87  0.00  0.00  0.00  0.00  0.00
  C252                    1.00   0.13  0.00  0.00  0.87  0.00  0.00  0.00  0.00  0.00
  C253                    1.00   0.13  0.00  0.00  0.87  0.00  0.00  0.00  0.00  0.00
  C254                    1.00   0.14  0.00  0.00  0.86  0.00  0.00  0.00  0.04  0.00
  C255                    1.00   0.14  0.00  0.00  0.86  0.00  0.00  0.00  0.00  0.00
  C256                    1.00   0.13  0.01  0.00  0.85  0.00  0.00  0.00  0.00  0.00
  C257                    1.00   0.13  0.00  0.00  0.87  0.00  0.00  0.00  0.00  0.00
  C258                    1.00   0.13  0.02  0.00  0.85  0.00  0.00  0.00  0.00  0.00
  C259                    1.00   0.13  0.00  0.00  0.87  0.00  0.00  0.00  0.00  0.00
  C260                    1.00   0.15  0.01  0.00  0.84  0.00  0.00  0.00  0.00  0.00
  C261                    1.00   0.15  0.00  0.00  0.85  0.00  0.00  0.00  0.00  0.00
  C262                    1.00   0.15  0.00  0.00  0.85  0.00  0.00  0.00  0.00  0.00
  C263                    1.00   0.16  0.00  0.00  0.84  0.00  0.00  0.00  0.00  0.00
  C264                    1.00   0.15  0.00  0.00  0.85  0.00  0.00  0.00  0.00  0.00
  C265                    1.00   0.15  0.02  0.00  0.83  0.00  0.00  0.00  0.00  0.00
  C266                    1.00   0.17  0.00  0.00  0.83  0.00  0.00  0.00  0.00  0.00
  C267                    1.00   0.18  0.00  0.00  0.82  0.00  0.00  0.00  0.00  0.00
  C268                    1.00   0.18  0.00  0.00  0.82  0.00  0.00  0.00  0.00  0.00
  C269                    1.00   0.18  0.00  0.00  0.82  0.00  0.00  0.00  0.00  0.00
  C270                    1.00   0.18  0.00  0.00  0.82  0.00  0.00  0.00  0.00  0.00
  C271                    1.00   0.17  0.02  0.00  0.82  0.00  0.00  0.00  0.00  0.00
  C272                    1.00   0.15  0.01  0.00  0.83  0.00  0.00  0.00  0.00  0.00
  C273                    1.00   0.15  0.00  0.00  0.85  0.00  0.00  0.00  0.00  0.00
  C274                    1.00   0.16  0.00  0.00  0.84  0.00  0.00  0.00  0.00  0.00
  C275                    1.00   0.19  0.00  0.00  0.81  0.00  0.00  0.00  0.00  0.00
  C276                    1.00   0.19  0.00  0.00  0.81  0.00  0.00  0.00  0.00  0.00
  C277                    1.00   0.20  0.00  0.00  0.80  0.00  0.00  0.00  0.00  0.00
  C278                    1.00   0.20  0.00  0.00  0.80  0.00  0.00  0.00  0.00  0.00
  C279                    1.00   0.20  0.00  0.00  0.80  0.00  0.00  0.00  0.00  0.00
  C280                    1.00   0.16  0.04  0.00  0.80  0.00  0.00  0.00  0.00  0.00
  C281                    1.00   0.16  0.00  0.00  0.84  0.00  0.00  0.00  0.00  0.00
  C282                    1.00   0.17  0.00  0.00  0.83  0.00  0.00  0.00  0.00  0.00
  C283                    1.00   0.18  0.00  0.00  0.82  0.00  0.00  0.00  0.00  0.00
  C284                    1.00   0.20  0.00  0.00  0.80  0.00  0.00  0.00  0.00  0.00
  C285                    1.00   0.21  0.00  0.00  0.79  0.00  0.00  0.00  0.00  0.00
  C286                    1.00   0.21  0.00  0.00  0.79  0.00  0.00  0.00  0.25  0.00
  C287                    1.00   0.17  0.04  0.00  0.79  0.00  0.00  0.00  0.23  0.00
  C288                    1.00   0.17  0.00  0.00  0.83  0.00  0.00  0.00  0.00  0.00
  C289                    1.00   0.21  0.00  0.00  0.79  0.00  0.00  0.00  0.00  0.00
  C290                    1.00   0.16  0.06  0.00  0.78  0.00  0.00  0.00  0.00  0.00
  C291                    1.00   0.16  0.00  0.00  0.84  0.00  0.00  0.00  0.03  0.00
  C292                    1.00   0.18  0.00  0.00  0.82  0.00  0.00  0.00  0.00  0.00
  C293                    1.00   0.19  0.00  0.00  0.81  0.00  0.00  0.00  0.00  0.00
  C294                    1.00   0.20  0.00  0.00  0.80  0.00  0.00  0.00  0.00  0.00
  C295                    1.00   0.22  0.00  0.00  0.78  0.00  0.00  0.00  0.00  0.00
  C296                    1.00   0.22  0.00  0.00  0.78  0.00  0.00  0.00  0.00  0.00
  C297                    1.00   0.23  0.00  0.00  0.77  0.00  0.00  0.00  0.00  0.00
  C298                    1.00   0.23  0.00  0.00  0.77  0.00  0.00  0.00  0.00  0.00
  C299                    1.00   0.23  0.00  0.00  0.77  0.00  0.00  0.00  0.00  0.00
  C300                    1.00   0.23  0.00  0.00  0.77  0.00  0.00  0.00  0.00  0.00
  C301                    1.00   0.23  0.00  0.00  0.77  0.00  0.00  0.00  0.00  0.00
  C302                    1.00   0.00  0.00  0.00  1.00  0.00  0.00  0.00  0.00  0.00
  C303                    1.00   0.00  0.00  0.00  1.00  0.00  0.00  0.00  0.00  0.00
  C353                    1.00   0.18  0.00  0.00  0.00  0.00  0.00  0.82  0.00  0.00
  
  
  *************************
  Conduit Surcharge Summary
  *************************
  
  ----------------------------------------------------------------------------
                                                           Hours        Hours 
                         --------- Hours Full --------   Above Full   Capacity
  Conduit                Both Ends  Upstream  Dnstream   Normal Flow   Limited
  ----------------------------------------------------------------------------
  FID1123                     0.01      0.01      0.27      0.01         0.01
  FID1139                     0.01      0.07      0.01      0.10         0.01
  FID4201                     0.01      0.10      0.01      0.19         0.01
  FID4202                     0.01      0.01      0.01      0.07         0.01
  FID4498                     0.01      0.01      1.43      0.01         0.01
  FID4882                     0.01      0.01      1.96      0.01         0.01
  FID4914                     0.01      0.01      2.06      0.01         0.01
  FID4917                     0.01      0.01      0.84      0.01         0.01
  C199                        0.01      0.01      0.01      8.53         0.01
  C200                        0.01      0.01      0.01      8.47         0.01
  C227                        0.01      0.01      0.01      0.51         0.01
  C262                        0.01      0.01      0.69      0.01         0.01
  
  
  ***************************
  Link Pollutant Load Summary
  ***************************
  
  --------------------------------------------------------------
                                 TSS            TP           TDP
  Link                            kg            kg            kg
  --------------------------------------------------------------
  FID1123                     23.361         0.001         0.014
  FID1139                    151.734         0.034         0.136
  FID1148                    266.348         0.065         0.249
  FID1149                    265.651         0.065         0.249
  FID3364                    323.104         0.072         0.293
  FID3671                     20.065         0.000         0.011
  FID3672                     69.678         0.025         0.078
  FID3762                    192.852         0.045         0.185
  FID3765                    328.189         0.067         0.287
  FID4112                    112.417         0.035         0.115
  FID4186                     26.517         0.002         0.018
  FID4187                     25.422         0.002         0.017
  FID4201                     60.281         0.026         0.076
  FID4202                     58.919         0.025         0.072
  FID4203                      0.000         0.000         0.000
  FID4299                      9.806         0.004         0.012
  FID4372                   1069.952         0.224         0.118
  FID4498                     50.758         0.085         0.146
  FID4806                   1336.182         0.418         0.263
  FID4807                      0.000         0.000         0.001
  FID4882                      0.000         0.000         0.000
  FID4884                     95.416         0.010         0.066
  FID4914                     49.134         0.010         0.044
  FID4915                      0.685         0.002         0.004
  FID4916                      0.083         0.000         0.001
  FID4917                      0.035         0.000         0.000
  FID5307                     20.852         0.008         0.028
  FID5308                      8.041         0.006         0.014
  FID5312                     17.666         0.007         0.026
  FID5865                    444.625         1.181         0.296
  C9                         187.390         1.039         1.316
  C12                        186.507         1.023         1.296
  C13                        223.769         1.030         1.329
  C14                        146.447         0.679         0.880
  C52                        438.568         0.102         0.406
  C130                        19.863         0.009         0.031
  C131                        19.469         0.009         0.030
  C139                         6.286         0.001         0.004
  C191                       236.261         0.697         0.960
  C193                       237.830         0.679         0.938
  C194                       234.264         0.674         0.934
  C195                       233.748         0.671         0.931
  C196                       216.302         0.700         0.954
  C197                       562.373         0.736         1.216
  C198                       755.051         0.778         1.398
  C199                       758.915         0.776         1.397
  C200                       757.150         0.772         1.393
  C201                       768.137         0.769         1.389
  C202                       778.295         0.767         1.395
  C203                       776.941         0.764         1.391
  C204                       774.232         0.762         1.387
  C205                       994.369         0.828         1.609
  C206                      1105.350         0.860         1.720
  C207                      1110.840         0.858         1.723
  C208                      1133.496         0.854         1.733
  C209                      1121.622         0.848         1.719
  C210                      1122.567         0.847         1.717
  C211                      1120.777         0.845         1.713
  C212                      1459.222         0.929         2.032
  C213                      1462.142         0.930         2.038
  C214                      1462.511         0.929         2.037
  C215                      1584.663         0.932         2.105
  C216                      1511.718         0.912         2.054
  C217                      1572.358         0.935         2.125
  C218                      2007.621         1.033         2.526
  C219                      2014.595         1.032         2.528
  C220                      2018.212         1.028         2.525
  C221                      2066.204         1.025         2.548
  C222                      2245.188         1.068         2.715
  C223                      2457.767         1.140         2.949
  C224                      2489.314         1.142         2.970
  C225                      2495.590         1.133         2.964
  C226                      2494.596         1.128         2.959
  C227                      2611.162         1.131         3.019
  C228                      2560.378         1.106         2.976
  C229                      2827.515         1.156         3.212
  C230                      2833.346         1.157         3.220
  C231                      2870.871         1.160         3.242
  C232                      2850.344         1.151         3.220
  C233                      2935.943         1.153         3.266
  C234                      2867.865         1.137         3.216
  C235                      2885.076         1.146         3.242
  C236                      3951.841         1.369         3.358
  C237                      3985.900         1.373         3.367
  C238                      4288.987         1.451         3.673
  C239                      4268.171         1.445         3.660
  C240                      4253.046         1.441         3.652
  C241                      4260.413         1.446         3.666
  C242                      4288.800         1.454         3.694
  C243                      4413.668         1.466         3.742
  C244                      4340.968         1.444         3.719
  C245                      4344.694         1.443         3.718
  C246                      5805.699         1.884         4.007
  C247                      5726.681         1.854         4.013
  C248                      5766.677         1.859         4.015
  C249                      5707.711         1.843         3.999
  C250                      5708.300         1.846         4.011
  C251                      5710.766         1.846         4.011
  C252                      6028.515         1.916         4.300
  C253                      6063.084         1.922         4.306
  C254                      6080.920         1.922         4.305
  C255                      6071.796         1.918         4.299
  C256                      6103.018         1.995         4.435
  C257                      6086.391         1.992         4.440
  C258                      6087.641         1.991         4.438
  C259                      6122.694         1.998         4.444
  C260                      6086.885         1.987         4.432
  C261                      6190.062         1.997         4.498
  C262                      6233.709         2.003         4.501
  C263                      6199.196         1.992         4.488
  C264                      6191.141         1.987         4.481
  C265                      6621.359         3.156         4.771
  C266                      6640.444         3.168         4.774
  C267                      6634.435         3.162         4.770
  C268                      6654.354         3.174         4.771
  C269                      6640.800         3.147         4.774
  C270                      6662.594         3.162         4.777
  C271                      6643.039         3.146         4.771
  C272                      6639.380         3.143         4.769
  C273                      6925.910         3.221         5.021
  C274                      6921.288         3.216         5.016
  C275                      6917.017         3.212         5.013
  C276                      6915.033         3.209         5.010
  C277                      6910.758         3.205         5.007
  C278                      6909.911         3.203         5.005
  C279                      6912.087         3.204         5.003
  C280                      6906.695         3.199         5.001
  C281                      7056.954         3.231         5.135
  C282                      7060.161         3.233         5.135
  C283                      7079.285         3.241         5.164
  C284                      7080.528         3.241         5.163
  C285                      7082.832         3.241         5.162
  C286                      7085.667         3.242         5.161
  C287                      7085.803         3.241         5.159
  C288                      7083.654         3.238         5.156
  C289                      7083.036         3.237         5.155
  C290                      7083.533         3.236         5.153
  C291                      7078.613         3.232         5.151
  C292                      7272.887         3.246         5.265
  C293                      7271.336         3.244         5.263
  C294                      7272.852         3.244         5.262
  C295                      7268.076         3.241         5.258
  C296                      7269.329         3.241         5.258
  C297                      7272.567         3.242         5.258
  C298                      7272.866         3.241         5.256
  C299                      7269.164         3.238         5.254
  C300                      7271.258         3.239         5.253
  C301                      7268.175         3.236         5.251
  C302                       186.860         1.034         1.310
  C303                       237.550         0.690         0.952
  C353                       187.076         0.011         0.112
  

  Analysis begun on:  Tue Oct 10 17:41:44 2017
  Analysis ended on:  Tue Oct 10 17:41:58 2017
  Total elapsed time: 00:00:14