
  EPA STORM WATER MANAGEMENT MODEL - VERSION 5.1 (Build 5.1.010)
  --------------------------------------------------------------

  WARNING 04: minimum elevation drop used for Conduit C199
  WARNING 04: minimum elevation drop used for Conduit C200
  WARNING 02: maximum depth increased for Node FID1955
  WARNING 02: maximum depth increased for Node FID1960
  WARNING 02: maximum depth increased for Node FID1965
  WARNING 02: maximum depth increased for Node FID1968
  WARNING 02: maximum depth increased for Node FID2244
  WARNING 02: maximum depth increased for Node FID2442
  WARNING 02: maximum depth increased for Node FID2446
  WARNING 02: maximum depth increased for Node FID5504
  WARNING 02: maximum depth increased for Node FID5527
  WARNING 02: maximum depth increased for Node AFID6926
  WARNING 02: maximum depth increased for Node AFID7376
  
  *********************************************************
  NOTE: The summary statistics displayed in this report are
  based on results found at every computational time step,  
  not just on results from each reporting time step.
  *********************************************************
  
  ****************
  Analysis Options
  ****************
  Flow Units ............... CMS
  Process Models:
    Rainfall/Runoff ........ YES
    RDII ................... NO
    Snowmelt ............... NO
    Groundwater ............ NO
    Flow Routing ........... YES
    Ponding Allowed ........ YES
    Water Quality .......... YES
  Infiltration Method ...... GREEN_AMPT
  Flow Routing Method ...... DYNWAVE
  Starting Date ............ MAY-06-2016 15:00:00
  Ending Date .............. MAY-07-2016 00:00:00
  Antecedent Dry Days ...... 0.0
  Report Time Step ......... 00:01:00
  Wet Time Step ............ 00:01:00
  Dry Time Step ............ 01:00:00
  Routing Time Step ........ 5.00 sec
  Variable Time Step ....... YES
  Maximum Trials ........... 8
  Number of Threads ........ 3
  Head Tolerance ........... 0.001500 m
  
  
  **************************        Volume         Depth
  Runoff Quantity Continuity     hectare-m            mm
  **************************     ---------       -------
  Total Precipitation ......         2.583         6.709
  Evaporation Loss .........         0.000         0.000
  Infiltration Loss ........         1.031         2.679
  Surface Runoff ...........         0.416         1.081
  Final Storage ............         1.136         2.950
  Continuity Error (%) .....        -0.013
  
  
  **************************           TSS            TP           TDP
  Runoff Quality Continuity             kg            kg            kg
  **************************    ----------    ----------    ----------
  Initial Buildup ..........         0.000         0.000         0.000
  Surface Buildup ..........     28993.007        12.777        15.048
  Wet Deposition ...........         0.000         0.000         0.000
  Sweeping Removal .........         0.000         0.000         0.000
  Infiltration Loss ........         0.000         0.000         0.000
  BMP Removal ..............         1.209         0.000         0.000
  Surface Runoff ...........     12084.226         3.397         4.391
  Remaining Buildup ........     16907.572         9.380        10.657
  Continuity Error (%) .....         0.000         0.000         0.000
  
  
  **************************        Volume        Volume
  Flow Routing Continuity        hectare-m      10^6 ltr
  **************************     ---------     ---------
  Dry Weather Inflow .......         0.000         0.000
  Wet Weather Inflow .......         0.416         4.163
  Groundwater Inflow .......         0.000         0.000
  RDII Inflow ..............         0.000         0.000
  External Inflow ..........         1.384        13.843
  External Outflow .........         1.177        11.769
  Flooding Loss ............         0.000         0.000
  Evaporation Loss .........         0.000         0.000
  Exfiltration Loss ........         0.000         0.000
  Initial Stored Volume ....         0.000         0.000
  Final Stored Volume ......         0.630         6.303
  Continuity Error (%) .....        -0.367
  
  
  **************************           TSS            TP           TDP
  Quality Routing Continuity            kg            kg            kg
  **************************    ----------    ----------    ----------
  Dry Weather Inflow .......         0.000         0.000         0.000
  Wet Weather Inflow .......     12083.596         3.394         4.381
  Groundwater Inflow .......         0.000         0.000         0.000
  RDII Inflow ..............         0.000         0.000         0.000
  External Inflow ..........       137.985         1.039         1.284
  External Outflow .........     11432.728         4.025         5.039
  Flooding Loss ............         0.000         0.000         0.000
  Exfiltration Loss ........         0.000         0.000         0.000
  Mass Reacted .............         0.000         0.000         0.000
  Initial Stored Mass ......         0.000         0.000         0.000
  Final Stored Mass ........        49.181         0.411         0.594
  Continuity Error (%) .....         6.052        -0.068         0.548
  
  
  *************************
  Highest Continuity Errors
  *************************
  Node FID2827 (4.32%)
  Node FID2824 (4.13%)
  Node J72 (1.90%)
  Node J81 (1.81%)
  Node J19 (1.76%)
  
  
  ***************************
  Time-Step Critical Elements
  ***************************
  Link C241 (90.77%)
  Link C14 (8.29%)
  
  
  ********************************
  Highest Flow Instability Indexes
  ********************************
  All links are stable.
  
  
  *************************
  Routing Time Step Summary
  *************************
  Minimum Time Step           :     0.45 sec
  Average Time Step           :     0.98 sec
  Maximum Time Step           :     5.00 sec
  Percent in Steady State     :     0.00
  Average Iterations per Step :     2.00
  Percent Not Converging      :     0.00
  
  
  ***************************
  Subcatchment Runoff Summary
  ***************************
  
  --------------------------------------------------------------------------------------------------------
                            Total      Total      Total      Total      Total       Total     Peak  Runoff
                           Precip      Runon       Evap      Infil     Runoff      Runoff   Runoff   Coeff
  Subcatchment                 mm         mm         mm         mm         mm    10^6 ltr      CMS
  --------------------------------------------------------------------------------------------------------
  S0                         5.84       0.00       0.00       4.93       0.26        0.00     0.00   0.044
  S1                         5.84       0.00       0.00       2.11       1.05        0.10     0.02   0.180
  S2                         6.35       0.00       0.00       1.28       1.43        0.25     0.06   0.225
  S3                         5.84       0.00       0.00       3.52       0.66        0.02     0.01   0.113
  S4                         5.84       0.00       0.00       2.34       0.99        0.10     0.05   0.170
  S6                         6.35       0.00       0.00       0.24       1.73        0.03     0.01   0.272
  S7                         6.35       0.00       0.00       1.39       1.08        0.42     0.10   0.170
  S8                         6.35       0.00       0.00       0.24       1.73        0.00     0.00   0.273
  S9                         6.35       0.00       0.00       1.07       1.50        0.00     0.00   0.236
  S10                        6.35       0.00       0.00       1.20       1.46        0.00     0.00   0.230
  S11                        6.35       0.00       0.00       4.79       0.44        0.00     0.00   0.070
  S12                        6.35       0.00       0.00       1.46       1.39        0.00     0.00   0.218
  S13                        6.35       0.00       0.00       1.75       1.30        0.10     0.02   0.204
  S14                        6.35       0.00       0.00       4.16       0.62        0.00     0.00   0.098
  S16                        6.35       0.00       0.00       1.34       1.51        0.08     0.02   0.238
  S17                        6.35       0.00       0.00       1.40       1.39        0.27     0.06   0.220
  S18                        6.35       0.00       0.00       0.64       1.62        0.00     0.00   0.255
  S19                        6.35       0.00       0.00       3.03       0.94        0.02     0.01   0.148
  S20                        6.35       0.00       0.00       1.58       1.35        0.01     0.00   0.213
  S21                        6.35       0.00       0.00       3.08       1.24        0.67     0.20   0.196
  S22                        6.35       0.00       0.00       0.99       1.52        0.00     0.00   0.239
  S23                        6.35       0.00       0.00       3.44       0.82        0.01     0.01   0.130
  S24                        6.35       0.00       0.00       3.20       0.89        0.02     0.01   0.140
  S25                        6.35       0.00       0.00       1.83       1.28        0.02     0.01   0.201
  S27                        6.35       0.00       0.00       2.23       1.17        0.01     0.00   0.184
  S28                        5.84       0.00       0.00       5.83       0.00        0.00     0.00   0.001
  S29                        5.84       0.00       0.00       5.79       0.01        0.00     0.00   0.002
  S30                        6.35       0.00       0.00       6.33       0.01        0.00     0.00   0.001
  S31                        6.35       0.00       0.00       6.34       0.00        0.00     0.00   0.000
  S32                        6.35       0.00       0.00       4.42       0.55        0.00     0.00   0.086
  S33                        6.35       0.00       0.00       0.79       1.57        0.02     0.01   0.248
  S34                        6.35       0.00       0.00       3.11       0.07        0.03     0.01   0.011
  S35                        6.35       0.00       0.00       3.18       0.90        0.00     0.00   0.142
  S36                        6.35       0.00       0.00       4.85       0.43        0.01     0.00   0.067
  S37                        6.35       0.00       0.00       1.16       1.47        0.01     0.00   0.231
  S39                        6.35       0.00       0.00       3.35       0.85        0.13     0.04   0.134
  S40                        6.35       0.00       0.00       4.12       0.63        0.01     0.00   0.099
  S41                        6.35       0.00       0.00       1.56       1.35        0.18     0.06   0.213
  S42                        6.35       0.00       0.00       2.01       1.23        0.12     0.04   0.193
  S43                        6.35       0.00       0.00       4.49       0.53        0.01     0.00   0.083
  S44                        6.35       0.00       0.00       2.09       1.20        0.27     0.08   0.189
  S45                        8.13       0.00       0.00       3.97       1.22        0.00     0.00   0.150
  S47                        8.13       0.00       0.00       2.72       1.58        0.07     0.04   0.194
  S48                        8.13       0.00       0.00       3.48       1.37        0.00     0.00   0.168
  S49                        8.13       0.00       0.00       2.91       1.51        0.28     0.13   0.186
  S51                        8.13       0.00       0.00       6.79       0.39        0.00     0.00   0.048
  S52                        8.13       0.00       0.00       3.27       1.42        0.09     0.06   0.174
  S53                        8.13       0.00       0.00       3.10       1.46        0.20     0.10   0.179
  S54                        8.13       0.00       0.00       4.33       1.10        0.10     0.02   0.136
  S55                        8.13       0.00       0.00       3.29       1.40        0.23     0.05   0.172
  S56                        8.13       0.00       0.00       5.52       0.76        0.00     0.00   0.093
  S57                        8.13       0.00       0.00       2.68       1.58        0.02     0.00   0.195
  S58                        8.13       0.00       0.00       3.68       1.29        0.05     0.01   0.159
  S59                        8.13       0.00       0.00       6.81       0.38        0.01     0.00   0.047
  S60                        8.13       0.00       0.00       5.40       0.79        0.02     0.00   0.097
  S61                        8.13       0.00       0.00       6.99       0.33        0.00     0.00   0.041
  S62                        8.13       0.00       0.00       6.42       0.50        0.01     0.01   0.061
  S63                        6.35       0.00       0.00       5.18       0.33        0.01     0.00   0.052
  S64                        6.35       0.00       0.00       2.32       1.14        0.02     0.01   0.180
  S65                        6.35       0.00       0.00       3.89       0.69        0.12     0.03   0.109
  
  
  ****************************
  Subcatchment Washoff Summary
  ****************************
  
  --------------------------------------------------------------
                                 TSS            TP           TDP
  Subcatchment                    kg            kg            kg
  --------------------------------------------------------------
  S0                           0.012         0.000         0.000
  S1                         369.574         0.039         0.086
  S2                         600.935         0.134         0.218
  S3                         109.190         0.010         0.033
  S4                         350.249         0.042         0.123
  S6                          64.032         0.015         0.019
  S7                         839.317         0.586         0.886
  S8                           0.620         0.000         0.001
  S9                           0.731         0.000         0.001
  S10                          9.477         0.001         0.008
  S11                          0.157         0.000         0.000
  S12                          0.427         0.000         0.000
  S13                        250.517         0.041         0.078
  S14                         19.817         0.006         0.003
  S16                        375.333         0.057         0.127
  S17                        681.869         0.162         0.230
  S18                          0.759         0.000         0.001
  S19                         85.231         0.027         0.014
  S20                         17.410         0.006         0.011
  S21                       1881.383         0.382         0.620
  S22                          5.181         0.001         0.005
  S23                         74.532         0.033         0.007
  S24                         69.553         0.008         0.020
  S25                         55.233         0.032         0.008
  S27                         20.811         0.008         0.011
  S28                          0.000         0.000         0.000
  S29                          0.000         0.000         0.000
  S30                          0.000         0.000         0.000
  S31                          0.000         0.000         0.000
  S32                         14.047         0.004         0.001
  S33                         42.582         0.011         0.025
  S34                          4.504         0.015         0.001
  S35                         14.069         0.004         0.004
  S36                         30.420         0.008         0.002
  S37                         22.536         0.011         0.009
  S39                        583.324         0.148         0.102
  S40                         86.033         0.026         0.005
  S41                        487.113         0.098         0.211
  S42                        386.017         0.084         0.132
  S43                         64.394         0.018         0.003
  S44                        857.945         0.214         0.264
  S45                          1.537         0.001         0.001
  S47                        148.113         0.060         0.075
  S48                          8.836         0.003         0.007
  S49                        698.851         0.260         0.260
  S51                         45.755         0.011         0.003
  S52                        241.506         0.079         0.107
  S53                        484.202         0.111         0.216
  S54                        379.467         0.140         0.087
  S55                        646.702         0.239         0.192
  S56                          0.226         0.000         0.000
  S57                         38.946         0.021         0.005
  S58                        145.190         0.030         0.058
  S59                          7.600         0.003         0.003
  S60                        106.444         0.040         0.007
  S61                          2.064         0.002         0.001
  S62                        104.980         0.030         0.007
  S63                          9.673         0.005         0.001
  S64                         64.132         0.043         0.008
  S65                        474.672         0.088         0.081
  --------------------------------------------------------------
  System                   12084.226         3.397         4.391
  
  
  ******************
  Node Depth Summary
  ******************
  
  ---------------------------------------------------------------------------------
                                 Average  Maximum  Maximum  Time of Max    Reported
                                   Depth    Depth      HGL   Occurrence   Max Depth
  Node                 Type       Meters   Meters   Meters  days hr:min      Meters
  ---------------------------------------------------------------------------------
  FID1936              JUNCTION     0.15     0.29  1376.59     0  04:05        0.09
  FID1955              JUNCTION     0.16     0.25  1376.17     0  04:15        0.08
  FID1960              JUNCTION     0.15     0.22  1376.08     0  04:15        0.07
  FID1965              JUNCTION     0.15     0.22  1376.52     0  04:15        0.07
  FID1968              JUNCTION     0.14     0.19  1376.59     0  04:15        0.06
  FID2239              JUNCTION     0.15     0.25  1374.76     0  03:30        0.08
  FID2241              JUNCTION     0.13     0.18  1373.31     0  03:30        0.06
  FID2242              JUNCTION     0.14     0.19  1374.23     0  03:30        0.06
  FID2244              JUNCTION     0.13     0.18  1374.54     0  03:30        0.05
  FID2440              JUNCTION     0.40     0.51  1374.76     0  04:20        0.16
  FID2442              JUNCTION     0.00     0.00  1375.27     0  00:00        0.00
  FID2446              JUNCTION     0.16     0.33  1376.13     0  04:05        0.10
  FID2447              JUNCTION     0.15     0.30  1376.00     0  04:05        0.09
  FID2455              JUNCTION     0.31     0.44  1374.43     0  04:20        0.13
  FID2711              JUNCTION     0.14     0.20  1370.38     0  03:50        0.06
  FID2719              JUNCTION     0.16     0.31  1370.41     0  04:05        0.09
  FID2720              JUNCTION     0.16     0.29  1370.49     0  04:05        0.09
  FID2824              JUNCTION     0.12     0.17  1371.45     0  03:30        0.05
  FID2827              JUNCTION     0.13     0.20  1371.50     0  03:30        0.06
  FID2828              JUNCTION     0.14     0.20  1371.52     0  03:21        0.06
  FID2832              JUNCTION     0.16     0.25  1370.85     0  04:10        0.07
  FID2833              JUNCTION     0.20     0.36  1370.98     0  04:10        0.11
  FID2839              JUNCTION     0.17     0.26  1371.46     0  04:10        0.08
  FID2873              JUNCTION     0.16     0.23  1370.93     0  03:55        0.07
  FID2964              JUNCTION     0.15     0.21  1370.99     0  04:10        0.06
  FID2965              JUNCTION     0.39     0.63  1370.89     0  04:36        0.19
  FID4584              JUNCTION     0.12     0.19  1371.53     0  04:10        0.06
  FID5068              JUNCTION     0.13     0.18  1375.56     0  03:30        0.06
  FID5072              JUNCTION     0.49     0.65  1373.94     0  04:29        0.20
  FID5140              JUNCTION     0.14     0.18  1373.40     0  03:30        0.06
  FID5435              JUNCTION     0.17     0.31  1373.06     0  03:30        0.09
  FID5437              JUNCTION     0.13     0.17  1373.12     0  03:30        0.05
  FID5503              JUNCTION     0.12     0.16  1371.49     0  04:10        0.05
  FID5504              JUNCTION     0.15     0.21  1371.57     0  04:10        0.06
  FID5527              JUNCTION     0.14     0.19  1372.69     0  04:10        0.06
  FID5568              JUNCTION     0.46     0.63  1373.02     0  04:36        0.19
  FID5784              JUNCTION     0.46     0.63  1372.63     0  04:41        0.19
  FID5785              JUNCTION     0.14     0.21  1374.64     0  03:31        0.07
  AFID6926             JUNCTION     0.15     0.21  1370.01     0  04:15        0.07
  AFID7360             JUNCTION     0.44     0.71  1370.84     0  04:36        0.22
  AFID7363             JUNCTION     0.43     0.69  1370.86     0  04:36        0.21
  AFID7376             JUNCTION     0.18     0.30  1371.53     0  04:10        0.09
  AFID7377             JUNCTION     0.37     0.55  1371.23     0  04:32        0.17
  AFID7705             JUNCTION     0.52     0.57  1375.53     0  04:15        0.17
  AFID7706             JUNCTION     0.57     0.62  1375.54     0  04:15        0.19
  AFID7792             JUNCTION     0.16     0.30  1375.10     0  03:30        0.09
  AFID8223             JUNCTION     0.46     0.63  1372.63     0  04:41        0.19
  J1                   JUNCTION     0.76     0.77  1375.76     0  04:17        0.23
  FID4901              JUNCTION     0.48     0.52  1375.59     0  04:16        0.16
  J9                   JUNCTION     0.65     0.66  1375.75     0  04:17        0.20
  J11                  JUNCTION     0.49     0.51  1375.71     0  04:17        0.15
  J12                  JUNCTION     0.49     0.51  1375.63     0  04:17        0.16
  J13                  JUNCTION     0.48     0.51  1375.59     0  04:16        0.16
  FID4902              JUNCTION     0.50     0.54  1375.58     0  04:16        0.16
  J14                  JUNCTION     0.39     0.46  1375.38     0  04:05        0.14
  J15                  JUNCTION     0.36     0.45  1375.11     0  04:07        0.14
  J16                  JUNCTION     0.37     0.46  1375.10     0  04:08        0.14
  FID2449              JUNCTION     0.41     0.52  1374.83     0  04:12        0.16
  J17                  JUNCTION     0.30     0.44  1374.41     0  04:20        0.13
  J19                  JUNCTION     0.43     0.59  1374.14     0  04:25        0.18
  FID5069              JUNCTION     0.51     0.68  1373.94     0  04:29        0.21
  FID5139              JUNCTION     0.46     0.63  1372.99     0  04:37        0.19
  J24                  JUNCTION     0.47     0.64  1373.00     0  04:37        0.19
  FID4984              JUNCTION     0.48     0.65  1372.61     0  04:41        0.20
  FID2669              JUNCTION     0.32     0.53  1368.97     0  04:40        0.16
  FID2712              JUNCTION     0.34     0.56  1369.75     0  04:37        0.17
  FID2718              JUNCTION     0.34     0.56  1369.80     0  04:36        0.17
  FID2838              JUNCTION     0.51     0.81  1370.75     0  04:34        0.25
  FID2825              JUNCTION     0.56     0.87  1370.77     0  04:35        0.26
  FID2823              JUNCTION     0.60     0.92  1370.79     0  04:36        0.28
  FID5505              JUNCTION     0.50     0.79  1370.82     0  04:36        0.24
  FID5436              JUNCTION     0.48     0.66  1371.99     0  04:31        0.20
  FID5438              JUNCTION     0.42     0.59  1372.02     0  04:32        0.18
  J49                  JUNCTION     0.51     0.55  1375.57     0  04:16        0.17
  J50                  JUNCTION     0.55     0.59  1375.56     0  04:16        0.18
  J51                  JUNCTION     0.60     0.65  1375.54     0  04:15        0.20
  J52                  JUNCTION     0.61     0.66  1375.54     0  04:15        0.20
  J53                  JUNCTION     0.39     0.46  1375.38     0  04:06        0.14
  J54                  JUNCTION     0.40     0.46  1375.41     0  04:07        0.14
  J55                  JUNCTION     0.45     0.50  1375.52     0  04:15        0.15
  J56                  JUNCTION     0.43     0.47  1375.50     0  04:15        0.14
  J57                  JUNCTION     0.40     0.45  1375.48     0  04:11        0.14
  J58                  JUNCTION     0.40     0.45  1375.43     0  04:07        0.14
  FID1935              JUNCTION     0.40     0.47  1375.36     0  04:05        0.14
  J59                  JUNCTION     0.40     0.47  1375.34     0  04:06        0.14
  J60                  JUNCTION     0.39     0.46  1375.28     0  04:07        0.14
  J61                  JUNCTION     0.37     0.44  1375.21     0  04:08        0.13
  J62                  JUNCTION     0.36     0.43  1375.19     0  04:08        0.13
  J63                  JUNCTION     0.37     0.46  1375.14     0  04:08        0.14
  J64                  JUNCTION     0.35     0.45  1375.06     0  04:08        0.14
  J65                  JUNCTION     0.32     0.42  1375.00     0  04:10        0.13
  J66                  JUNCTION     0.40     0.51  1374.72     0  04:20        0.15
  J67                  JUNCTION     0.39     0.50  1374.65     0  04:21        0.15
  J68                  JUNCTION     0.37     0.48  1374.55     0  04:21        0.15
  J69                  JUNCTION     0.50     0.65  1374.38     0  04:20        0.20
  J70                  JUNCTION     0.49     0.64  1374.29     0  04:22        0.19
  J71                  JUNCTION     0.47     0.62  1374.22     0  04:23        0.19
  J72                  JUNCTION     0.50     0.66  1374.01     0  04:28        0.20
  J73                  JUNCTION     0.51     0.68  1373.90     0  04:30        0.21
  J74                  JUNCTION     0.51     0.68  1373.67     0  04:31        0.21
  J75                  JUNCTION     0.52     0.69  1373.54     0  04:32        0.21
  J76                  JUNCTION     0.46     0.63  1372.97     0  04:37        0.19
  J77                  JUNCTION     0.46     0.63  1372.84     0  04:37        0.19
  J78                  JUNCTION     0.46     0.63  1372.70     0  04:40        0.19
  J79                  JUNCTION     0.46     0.63  1372.64     0  04:41        0.19
  J80                  JUNCTION     0.39     0.56  1372.05     0  04:33        0.17
  J81                  JUNCTION     0.46     0.64  1371.64     0  04:34        0.20
  J82                  JUNCTION     0.45     0.64  1371.57     0  04:35        0.19
  J83                  JUNCTION     0.38     0.57  1371.37     0  04:35        0.17
  J84                  JUNCTION     0.35     0.52  1371.16     0  04:33        0.16
  J85                  JUNCTION     0.35     0.53  1371.05     0  04:35        0.16
  J86                  JUNCTION     0.36     0.57  1370.95     0  04:36        0.18
  J87                  JUNCTION     0.42     0.67  1370.86     0  04:36        0.21
  J88                  JUNCTION     0.49     0.77  1370.82     0  04:36        0.24
  J89                  JUNCTION     0.52     0.82  1370.81     0  04:36        0.25
  J90                  JUNCTION     0.49     0.78  1370.73     0  04:34        0.24
  J91                  JUNCTION     0.48     0.78  1370.67     0  04:35        0.24
  J92                  JUNCTION     0.48     0.78  1370.61     0  04:35        0.24
  J93                  JUNCTION     0.48     0.78  1370.50     0  04:35        0.24
  J94                  JUNCTION     0.48     0.77  1370.43     0  04:35        0.24
  J95                  JUNCTION     0.48     0.77  1370.41     0  04:34        0.23
  J96                  JUNCTION     0.47     0.76  1370.32     0  04:35        0.23
  J97                  JUNCTION     0.46     0.75  1370.24     0  04:36        0.23
  J98                  JUNCTION     0.45     0.73  1370.18     0  04:37        0.22
  J99                  JUNCTION     0.44     0.71  1370.11     0  04:37        0.22
  J100                 JUNCTION     0.43     0.69  1370.05     0  04:37        0.21
  J101                 JUNCTION     0.41     0.65  1369.98     0  04:37        0.20
  J102                 JUNCTION     0.34     0.56  1369.83     0  04:36        0.17
  J103                 JUNCTION     0.34     0.56  1369.78     0  04:36        0.17
  J104                 JUNCTION     0.33     0.55  1369.71     0  04:37        0.17
  J105                 JUNCTION     0.33     0.54  1369.67     0  04:37        0.17
  J106                 JUNCTION     0.32     0.53  1369.60     0  04:37        0.16
  J107                 JUNCTION     0.32     0.52  1369.46     0  04:38        0.16
  J108                 JUNCTION     0.32     0.53  1369.32     0  04:39        0.16
  J109                 JUNCTION     0.32     0.53  1369.21     0  04:39        0.16
  J110                 JUNCTION     0.31     0.53  1369.11     0  04:40        0.16
  J111                 JUNCTION     0.31     0.53  1369.01     0  04:40        0.16
  J112                 JUNCTION     0.32     0.53  1368.85     0  04:40        0.16
  J113                 JUNCTION     0.32     0.53  1368.76     0  04:41        0.16
  J114                 JUNCTION     0.32     0.53  1368.64     0  04:41        0.16
  J115                 JUNCTION     0.31     0.53  1368.58     0  04:42        0.16
  J116                 JUNCTION     0.31     0.53  1368.51     0  04:42        0.16
  J117                 JUNCTION     0.32     0.53  1368.41     0  04:42        0.16
  J118                 JUNCTION     0.32     0.54  1368.31     0  04:43        0.16
  J119                 JUNCTION     0.33     0.55  1368.25     0  04:43        0.17
  J120                 JUNCTION     0.35     0.56  1368.17     0  04:43        0.17
  FID2451              JUNCTION     0.40     0.50  1374.79     0  04:20        0.15
  J121                 JUNCTION     0.36     0.55  1371.29     0  04:34        0.17
  J122                 JUNCTION     0.36     0.55  1371.26     0  04:33        0.17
  FID3706              JUNCTION     0.48     0.78  1370.51     0  04:35        0.24
  FID2831              JUNCTION     0.48     0.77  1370.40     0  04:34        0.23
  FID2689              OUTFALL      0.20     0.34  1367.84     0  04:43        0.10
  
  
  *******************
  Node Inflow Summary
  *******************
  
  -------------------------------------------------------------------------------------------------
                                  Maximum  Maximum                  Lateral       Total        Flow
                                  Lateral    Total  Time of Max      Inflow      Inflow     Balance
                                   Inflow   Inflow   Occurrence      Volume      Volume       Error
  Node                 Type           CMS      CMS  days hr:min    10^6 ltr    10^6 ltr     Percent
  -------------------------------------------------------------------------------------------------
  FID1936              JUNCTION     0.059    0.059     0  04:05      0.0949      0.0949       0.182
  FID1955              JUNCTION     0.054    0.054     0  04:15       0.228       0.228       0.079
  FID1960              JUNCTION     0.025    0.025     0  04:15       0.104       0.104       0.168
  FID1965              JUNCTION     0.012    0.012     0  04:15      0.0525      0.0525       0.335
  FID1968              JUNCTION     0.004    0.004     0  04:15      0.0158      0.0158       1.114
  FID2239              JUNCTION     0.006    0.006     0  03:30      0.0171      0.0171       2.071
  FID2241              JUNCTION     0.000    0.005     0  03:30           0      0.0159       1.090
  FID2242              JUNCTION     0.005    0.005     0  03:30      0.0161      0.0161       1.135
  FID2244              JUNCTION     0.002    0.002     0  03:30     0.00625     0.00625       2.868
  FID2440              JUNCTION     0.000    0.698     0  04:20           0        13.1       0.313
  FID2442              JUNCTION     0.000    0.000     0  00:00           0           0       0.000 ltr
  FID2446              JUNCTION     0.044    0.044     0  04:05      0.0672      0.0672       1.663
  FID2447              JUNCTION     0.000    0.044     0  04:05           0      0.0661      -0.402
  FID2455              JUNCTION     0.040    0.719     0  04:20       0.124          13       0.308
  FID2711              JUNCTION     0.000    0.012     0  04:05           0       0.021       0.880
  FID2719              JUNCTION     0.049    0.049     0  04:05      0.0987      0.0987       0.180
  FID2720              JUNCTION     0.012    0.012     0  04:05      0.0213      0.0213       1.079
  FID2824              JUNCTION     0.000    0.001     0  03:30    0.000284     0.00403       4.308
  FID2827              JUNCTION     0.000    0.001     0  03:22    0.000322     0.00391       4.512
  FID2828              JUNCTION     0.001    0.001     0  03:30      0.0038      0.0038       5.857
  FID2832              JUNCTION     0.000    0.060     0  04:10           0       0.246       0.089
  FID2833              JUNCTION     0.060    0.060     0  04:10       0.247       0.247       0.115
  FID2839              JUNCTION     0.102    0.102     0  04:10       0.421       0.421       0.062
  FID2873              JUNCTION     0.008    0.008     0  04:10      0.0324      0.0324       1.173
  FID2964              JUNCTION     0.020    0.020     0  04:10      0.0841      0.0841       0.192
  FID2965              JUNCTION     0.000    0.853     0  04:34           0          12       0.465
  FID4584              JUNCTION     0.000    0.001     0  03:30           0    0.000336      91.182
  FID5068              JUNCTION     0.003    0.003     0  03:30     0.00768     0.00768       2.309
  FID5072              JUNCTION     0.044    0.756     0  04:20       0.126        12.6       0.292
  FID5140              JUNCTION     0.006    0.006     0  03:30      0.0252      0.0252       0.634
  FID5435              JUNCTION     0.200    0.200     0  03:30       0.666       0.666       0.027
  FID5437              JUNCTION     0.001    0.001     0  03:30      0.0021      0.0021       9.070
  FID5503              JUNCTION     0.000    0.000     0  03:30    0.000305    0.000305     132.718
  FID5504              JUNCTION     0.024    0.024     0  04:10      0.0978      0.0978       0.189
  FID5527              JUNCTION     0.005    0.005     0  04:10      0.0203      0.0203       0.831
  FID5568              JUNCTION     0.001    0.754     0  04:33       0.003        12.2       1.051
  FID5784              JUNCTION     0.000    0.763     0  04:36           0          12       0.148
  FID5785              JUNCTION     0.000    0.006     0  03:30           0      0.0167       0.950
  AFID6926             JUNCTION     0.025    0.025     0  04:15       0.103       0.103       0.170
  AFID7360             JUNCTION     0.000    0.852     0  04:37    0.000184        11.9       0.341
  AFID7363             JUNCTION     0.000    0.852     0  04:37           0        11.9       0.164
  AFID7376             JUNCTION     0.065    0.065     0  04:10       0.268       0.268       0.077
  AFID7377             JUNCTION     0.000    0.849     0  04:30           0        12.1       0.172
  AFID7705             JUNCTION     0.000    0.525     0  04:15           0        13.4       0.316
  AFID7706             JUNCTION     0.000    0.502     0  04:17           0        13.3       0.298
  AFID7792             JUNCTION     0.078    0.078     0  03:30       0.271       0.271       0.064
  AFID8223             JUNCTION     0.000    0.762     0  04:37           0          12       0.033
  J1                   JUNCTION     0.657    0.657     0  04:15          21          21       0.169
  FID4901              JUNCTION     0.000    0.448     0  04:20           0        13.6       0.272
  J9                   JUNCTION     0.000    0.661     0  00:01           0          21       0.347
  J11                  JUNCTION     0.000    0.657     0  04:15           0        20.9       0.619
  J12                  JUNCTION     0.002    0.658     0  04:22     0.00968        20.8       0.678
  J13                  JUNCTION    -0.220    0.660     0  04:35       -7.13        20.6      -0.207
  FID4902              JUNCTION     0.000    0.452     0  04:15           0        13.6       0.429
  J14                  JUNCTION     0.103    0.578     0  04:05       0.203        13.2       0.239
  J15                  JUNCTION     0.131    0.673     0  04:05       0.283        13.3       0.205
  J16                  JUNCTION     0.003    0.668     0  04:05     0.00394        13.3       0.206
  FID2449              JUNCTION     0.000    0.647     0  04:10    0.000568          13       1.634
  J17                  JUNCTION     0.062    0.756     0  04:20       0.184        13.2       0.156
  J19                  JUNCTION     0.006    0.748     0  04:22       0.016        12.9       1.793
  FID5069              JUNCTION     0.000    0.756     0  04:28           0        12.5       0.259
  FID5139              JUNCTION     0.000    0.756     0  04:35           0        12.1       0.082
  J24                  JUNCTION     0.007    0.753     0  04:36      0.0183        12.1       0.117
  FID4984              JUNCTION     0.000    0.764     0  04:36           0          12       1.245
  FID2669              JUNCTION     0.000    0.946     0  04:39           0        11.9       0.120
  FID2712              JUNCTION     0.000    0.936     0  04:35           0          12       0.142
  FID2718              JUNCTION     0.000    0.933     0  04:35           0          12       0.103
  FID2838              JUNCTION     0.000    0.898     0  04:30           0        12.1       0.290
  FID2825              JUNCTION     0.000    0.862     0  04:40           0        11.7       0.471
  FID2823              JUNCTION     0.000    0.860     0  04:38           0        11.8       0.782
  FID5505              JUNCTION     0.000    0.860     0  04:37           0        11.9       0.214
  FID5436              JUNCTION     0.000    0.835     0  04:20           0        12.4       1.279
  FID5438              JUNCTION     0.000    0.766     0  04:41           0        11.8       0.227
  J49                  JUNCTION     0.000    0.452     0  04:20           0        13.5       0.693
  J50                  JUNCTION     0.000    0.453     0  04:20    0.000116        13.4       1.196
  J51                  JUNCTION     0.000    0.458     0  04:34           0        13.3       0.949
  J52                  JUNCTION     0.000    0.463     0  04:34           0        13.1       0.280
  J53                  JUNCTION     0.000    0.530     0  04:15           0        13.1       0.263
  J54                  JUNCTION     0.000    0.528     0  04:15           0        13.1       0.389
  J55                  JUNCTION     0.000    0.525     0  04:15           0        13.3       0.363
  J56                  JUNCTION     0.000    0.525     0  04:15           0        13.3       0.394
  J57                  JUNCTION     0.000    0.525     0  04:15           0        13.2       0.497
  J58                  JUNCTION     0.001    0.527     0  04:16     0.00285        13.2       0.532
  FID1935              JUNCTION     0.000    0.631     0  04:05           0        13.3       0.309
  J59                  JUNCTION     0.000    0.622     0  04:05           0        13.3       0.441
  J60                  JUNCTION     0.003    0.611     0  04:05     0.00396        13.2       0.688
  J61                  JUNCTION     0.000    0.593     0  04:07           0        13.1       0.463
  J62                  JUNCTION     0.000    0.590     0  04:08           0        13.1       0.210
  J63                  JUNCTION     0.000    0.591     0  04:09           0          13       0.213
  J64                  JUNCTION     0.000    0.663     0  04:05           0        13.2       0.216
  J65                  JUNCTION     0.008    0.664     0  04:05      0.0127        13.2       1.263
  J66                  JUNCTION     0.000    0.697     0  04:20           0        13.1       0.394
  J67                  JUNCTION     0.000    0.696     0  04:20           0          13       0.584
  J68                  JUNCTION     0.004    0.696     0  04:21      0.0102          13       0.623
  J69                  JUNCTION     0.000    0.755     0  04:20           0        13.1       0.635
  J70                  JUNCTION     0.002    0.753     0  04:20     0.00511        13.1       0.816
  J71                  JUNCTION     0.000    0.749     0  04:21           0          13       0.597
  J72                  JUNCTION     0.005    0.744     0  04:25      0.0138        12.7       1.941
  J73                  JUNCTION     0.000    0.756     0  04:28           0        12.5       0.598
  J74                  JUNCTION     0.000    0.755     0  04:30           0        12.4       0.874
  J75                  JUNCTION     0.002    0.755     0  04:30     0.00531        12.3       1.354
  J76                  JUNCTION     0.000    0.755     0  04:36           0        12.1       0.333
  J77                  JUNCTION     0.034    0.764     0  04:33       0.117        12.1       0.614
  J78                  JUNCTION     0.000    0.763     0  04:35           0        12.1       0.459
  J79                  JUNCTION     0.000    0.762     0  04:37           0          12       0.167
  J80                  JUNCTION     0.005    0.762     0  04:40      0.0135        11.9       1.050
  J81                  JUNCTION     0.001    0.824     0  04:31     0.00236        12.3       1.845
  J82                  JUNCTION     0.000    0.820     0  04:33           0          12       0.737
  J83                  JUNCTION     0.000    0.820     0  04:35           0          12       0.576
  J84                  JUNCTION     0.000    0.848     0  04:30           0        12.1       0.308
  J85                  JUNCTION     0.000    0.847     0  04:31           0        12.1       0.572
  J86                  JUNCTION     0.000    0.846     0  04:34           0          12       0.611
  J87                  JUNCTION     0.001    0.852     0  04:36     0.00364          12       0.256
  J88                  JUNCTION     0.000    0.853     0  04:38           0        11.9       0.381
  J89                  JUNCTION     0.000    0.860     0  04:37           0        11.9       0.590
  J90                  JUNCTION     0.000    0.897     0  04:30           0        12.1       0.212
  J91                  JUNCTION     0.000    0.896     0  04:32           0          12       0.291
  J92                  JUNCTION     0.000    0.896     0  04:34    1.41e-06          12       0.372
  J93                  JUNCTION     0.000    0.898     0  04:36           0          12       0.203
  J94                  JUNCTION     0.000    0.899     0  04:37     2.6e-06        11.9       0.216
  J95                  JUNCTION     0.000    0.899     0  04:37           0        11.9       0.084
  J96                  JUNCTION     0.000    0.921     0  04:32           0        12.1       0.315
  J97                  JUNCTION     0.000    0.920     0  04:33           0        12.1       0.268
  J98                  JUNCTION     0.000    0.919     0  04:34           0          12       0.236
  J99                  JUNCTION     0.000    0.919     0  04:35           0          12       0.199
  J100                 JUNCTION     0.000    0.918     0  04:36           0          12       0.169
  J101                 JUNCTION     0.000    0.918     0  04:37           0          12       0.195
  J102                 JUNCTION     0.000    0.918     0  04:38           0          12       0.154
  J103                 JUNCTION     0.000    0.933     0  04:35           0          12       0.117
  J104                 JUNCTION     0.000    0.936     0  04:36           0          12       0.153
  J105                 JUNCTION     0.000    0.935     0  04:36           0          12       0.189
  J106                 JUNCTION     0.000    0.935     0  04:37           0          12       0.213
  J107                 JUNCTION     0.000    0.935     0  04:37           0        11.9       0.218
  J108                 JUNCTION     0.000    0.934     0  04:38    9.36e-06        11.9       0.196
  J109                 JUNCTION     0.000    0.934     0  04:38           0        11.9       0.165
  J110                 JUNCTION     0.000    0.934     0  04:39           0        11.9       0.163
  J111                 JUNCTION     0.000    0.934     0  04:39    8.42e-05        11.9       0.117
  J112                 JUNCTION     0.000    0.946     0  04:40           0        11.9       0.168
  J113                 JUNCTION     0.000    0.946     0  04:40           0        11.9       0.165
  J114                 JUNCTION     0.000    0.945     0  04:41           0        11.9       0.137
  J115                 JUNCTION     0.000    0.945     0  04:41           0        11.9       0.104
  J116                 JUNCTION     0.000    0.945     0  04:41    2.53e-06        11.9       0.138
  J117                 JUNCTION     0.000    0.945     0  04:42           0        11.8       0.169
  J118                 JUNCTION     0.000    0.945     0  04:42           0        11.8       0.147
  J119                 JUNCTION     0.000    0.945     0  04:42           0        11.8       0.150
  J120                 JUNCTION     0.000    0.945     0  04:43           0        11.8       0.176
  FID2451              JUNCTION     0.000    0.647     0  04:11           0        12.9       0.305
  J121                 JUNCTION     0.002    0.820     0  04:36     0.00714        11.9       0.170
  J122                 JUNCTION     0.000    0.820     0  04:37    0.000324        11.9       0.147
  FID3706              JUNCTION     0.000    0.898     0  04:35           0          12       0.285
  FID2831              JUNCTION     0.000    0.921     0  04:31           0        12.1       0.196
  FID2689              OUTFALL      0.000    0.945     0  04:43           0        11.8       0.000
  
  
  **********************
  Node Surcharge Summary
  **********************
  
  No nodes were surcharged.
  
  
  *********************
  Node Flooding Summary
  *********************
  
  No nodes were flooded.
  
  
  ***********************
  Outfall Loading Summary
  ***********************
  
  -----------------------------------------------------------------------------------------------------
                         Flow       Avg       Max       Total         Total         Total         Total
                         Freq      Flow      Flow      Volume           TSS            TP           TDP
  Outfall Node           Pcnt       CMS       CMS    10^6 ltr            kg            kg            kg
  -----------------------------------------------------------------------------------------------------
  FID2689               73.94     0.630     0.945      11.768     11347.821         3.665         4.613
  -----------------------------------------------------------------------------------------------------
  System                73.94     0.630     0.945      11.768     11347.821         3.665         4.613
  
  
  ********************
  Link Flow Summary
  ********************
  
  -----------------------------------------------------------------------------
                                 Maximum  Time of Max   Maximum    Max/    Max/
                                  |Flow|   Occurrence   |Veloc|    Full    Full
  Link                 Type          CMS  days hr:min     m/sec    Flow   Depth
  -----------------------------------------------------------------------------
  FID1123              CONDUIT     0.008     0  04:09      0.58    0.14    0.30
  FID1139              CONDUIT     0.047     0  04:05      1.07    0.36    0.41
  FID1148              CONDUIT     0.060     0  04:10      0.71    0.16    0.19
  FID1149              CONDUIT     0.060     0  04:10      1.66    0.02    0.21
  FID3364              CONDUIT     0.065     0  04:10      0.53    0.06    0.29
  FID3671              CONDUIT     0.004     0  04:15      0.79    0.03    0.12
  FID3672              CONDUIT     0.012     0  04:15      1.13    0.09    0.21
  FID3762              CONDUIT     0.025     0  04:15      0.67    0.08    0.38
  FID3765              CONDUIT     0.054     0  04:15      1.15    0.16    0.44
  FID4112              CONDUIT     0.059     0  04:05      1.23    0.11    0.22
  FID4186              CONDUIT     0.005     0  03:30      0.73    0.03    0.11
  FID4187              CONDUIT     0.005     0  03:30      1.14    0.01    0.08
  FID4201              CONDUIT     0.044     0  04:05      0.92    0.47    0.43
  FID4202              CONDUIT     0.043     0  04:05      1.04    0.33    0.39
  FID4203              CONDUIT     0.000     0  00:00      0.00    0.00    0.19
  FID4299              CONDUIT     0.003     0  03:30      0.71    0.01    0.08
  FID4372              CONDUIT     0.006     0  03:30      0.06    0.00    0.23
  FID4498              CONDUIT     0.020     0  04:10      0.87    0.03    0.56
  FID4806              CONDUIT     0.200     0  03:30      2.63    0.07    0.17
  FID4807              CONDUIT     0.001     0  03:30      0.54    0.01    0.05
  FID4882              CONDUIT     0.000     0  04:10      0.00    0.00    0.51
  FID4884              CONDUIT     0.024     0  04:10      1.33    0.01    0.06
  FID4914              CONDUIT     0.005     0  04:10      0.41    0.02    0.55
  FID4915              CONDUIT     0.001     0  03:22      0.16    0.03    0.13
  FID4916              CONDUIT     0.001     0  03:30      0.19    0.03    0.10
  FID4917              CONDUIT     0.001     0  03:30      0.62    0.00    0.36
  FID5307              CONDUIT     0.006     0  03:30      0.35    0.11    0.21
  FID5308              CONDUIT     0.002     0  03:30      0.87    0.01    0.08
  FID5312              CONDUIT     0.005     0  03:31      0.48    0.03    0.12
  FID5865              CONDUIT     0.102     0  04:10      2.47    0.05    0.18
  C9                   CHANNEL     0.661     0  00:01      0.59    0.09    0.51
  C12                  CHANNEL     0.657     0  04:22      0.40    0.37    0.59
  C13                  CHANNEL     0.660     0  04:35      0.54    0.38    0.60
  C14                  CHANNEL     0.442     0  04:35      0.54    0.25    0.60
  C52                  CONDUIT     0.078     0  03:30      0.83    0.13    0.40
  C130                 CONDUIT     0.012     0  04:05      0.40    0.23    0.23
  C131                 CONDUIT     0.012     0  04:05      1.17    0.03    0.20
  C139                 CONDUIT     0.001     0  03:30      0.04    0.01    0.24
  C191                 CHANNEL     0.452     0  04:20      0.41    0.26    0.63
  C193                 CHANNEL     0.458     0  04:34      0.32    0.26    0.72
  C194                 CHANNEL     0.463     0  04:34      0.26    0.26    0.76
  C195                 CHANNEL     0.464     0  04:34      0.31    0.12    0.61
  C196                 CONDUIT     0.449     0  04:20      0.39    0.42    0.67
  C197                 CONDUIT     0.502     0  04:17      0.21    0.31    0.85
  C198                 CHANNEL     0.525     0  04:15      0.24    0.13    0.50
  C199                 CHANNEL     0.525     0  04:15      0.26    2.97    0.58
  C200                 CHANNEL     0.525     0  04:15      0.29    2.68    0.55
  C201                 CHANNEL     0.526     0  04:16      0.27    0.20    0.45
  C202                 CHANNEL     0.528     0  04:15      0.28    0.20    0.46
  C203                 CHANNEL     0.530     0  04:15      0.28    0.20    0.46
  C204                 CHANNEL     0.531     0  04:15      0.41    0.20    0.46
  C205                 CONDUIT     0.572     0  04:05      0.26    0.51    0.57
  C206                 CHANNEL     0.622     0  04:05      0.33    0.24    0.47
  C207                 CHANNEL     0.609     0  04:05      0.30    0.23    0.46
  C208                 CHANNEL     0.593     0  04:07      0.30    0.23    0.45
  C209                 CHANNEL     0.590     0  04:08      0.31    0.23    0.44
  C210                 CHANNEL     0.591     0  04:09      0.37    0.23    0.51
  C211                 CHANNEL     0.592     0  04:10      0.37    0.28    0.46
  C212                 CONDUIT     0.665     0  04:05      0.30    0.50    0.55
  C213                 CHANNEL     0.663     0  04:05      0.41    0.31    0.46
  C214                 CHANNEL     0.659     0  04:06      0.45    0.31    0.44
  C215                 CONDUIT     0.647     0  04:10      0.28    0.48    0.57
  C216                 CONDUIT     0.643     0  04:12      0.36    0.62    0.48
  C217                 CONDUIT     0.647     0  04:12      0.31    0.33    0.37
  C218                 CHANNEL     0.697     0  04:20      0.37    0.33    0.52
  C219                 CHANNEL     0.696     0  04:20      0.37    0.33    0.51
  C220                 CHANNEL     0.694     0  04:21      0.38    0.33    0.50
  C221                 CHANNEL     0.696     0  04:22      0.41    0.33    0.47
  C222                 CONDUIT     0.717     0  04:20      0.39    0.62    0.53
  C223                 CHANNEL     0.755     0  04:20      0.48    0.12    0.48
  C224                 CHANNEL     0.752     0  04:20      0.36    0.63    0.75
  C225                 CHANNEL     0.749     0  04:21      0.37    0.63    0.73
  C226                 CHANNEL     0.746     0  04:22      0.46    0.63    0.71
  C227                 CONDUIT     0.742     0  04:25      0.28    0.78    0.76
  C228                 CHANNEL     0.742     0  04:26      0.47    0.39    0.61
  C229                 CONDUIT     0.755     0  04:27      0.22    0.17    0.45
  C230                 CHANNEL     0.756     0  04:28      0.48    0.40    0.63
  C231                 CHANNEL     0.755     0  04:30      0.46    0.40    0.63
  C232                 CHANNEL     0.754     0  04:31      0.48    0.40    0.64
  C233                 CHANNEL     0.754     0  04:33      0.48    0.40    0.61
  C234                 CONDUIT     0.753     0  04:36      0.35    0.40    0.46
  C235                 CHANNEL     0.753     0  04:36      0.50    0.40    0.59
  C236                 CHANNEL     0.755     0  04:36      0.46    0.47    0.66
  C237                 CHANNEL     0.755     0  04:37      0.46    0.47    0.66
  C238                 CHANNEL     0.763     0  04:35      0.47    0.47    0.66
  C239                 CHANNEL     0.762     0  04:37      0.47    0.47    0.65
  C240                 CHANNEL     0.762     0  04:37      0.53    0.46    0.65
  C241                 CHANNEL     0.762     0  04:37      0.62    0.47    0.65
  C242                 CONDUIT     0.763     0  04:37      0.41    0.34    0.53
  C243                 CHANNEL     0.762     0  04:40      0.49    0.47    0.63
  C244                 CHANNEL     0.766     0  04:41      0.81    0.16    0.37
  C245                 CONDUIT     0.767     0  04:41      0.39    0.27    0.49
  C246                 CHANNEL     0.822     0  04:31      0.39    0.34    0.57
  C247                 CHANNEL     0.820     0  04:33      0.40    0.34    0.56
  C248                 CHANNEL     0.820     0  04:35      0.44    0.34    0.53
  C249                 CHANNEL     0.820     0  04:36      0.54    0.43    0.53
  C250                 CONDUIT     0.820     0  04:37      0.47    0.39    0.43
  C251                 CONDUIT     0.821     0  04:37      0.47    0.39    0.43
  C252                 CHANNEL     0.848     0  04:30      1.51    0.44    0.50
  C253                 CHANNEL     0.847     0  04:31      0.70    0.25    0.50
  C254                 CHANNEL     0.846     0  04:34      2.45    0.25    0.52
  C255                 CHANNEL     0.845     0  04:36      0.40    0.25    0.57
  C256                 CHANNEL     0.852     0  04:36      0.39    0.25    0.62
  C257                 CHANNEL     0.852     0  04:37      2.30    0.25    0.65
  C258                 CONDUIT     0.852     0  04:37      0.40    0.40    0.55
  C259                 CHANNEL     0.853     0  04:38      0.40    0.25    0.70
  C260                 CHANNEL     0.853     0  04:39      0.39    0.25    0.74
  C261                 CHANNEL     0.860     0  04:37      0.55    0.25    0.76
  C262                 CHANNEL     0.860     0  04:38      0.60    0.25    0.82
  C263                 CHANNEL     0.862     0  04:40      0.31    0.26    0.57
  C264                 CONDUIT     0.863     0  04:40      0.34    0.58    0.61
  C265                 CHANNEL     0.897     0  04:30      0.42    0.27    0.50
  C266                 CHANNEL     0.896     0  04:32      0.44    0.23    0.54
  C267                 CHANNEL     0.896     0  04:34      0.49    0.23    0.54
  C268                 CHANNEL     0.896     0  04:36      0.44    0.23    0.54
  C269                 CHANNEL     0.898     0  04:36      0.45    0.23    0.54
  C270                 CHANNEL     0.899     0  04:37      0.45    0.23    0.54
  C271                 CHANNEL     0.899     0  04:37      0.45    0.23    0.54
  C272                 CHANNEL     0.899     0  04:37      0.45    0.23    0.54
  C273                 CHANNEL     0.921     0  04:32      0.47    0.23    0.53
  C274                 CHANNEL     0.920     0  04:33      0.48    0.23    0.53
  C275                 CHANNEL     0.919     0  04:34      0.49    0.23    0.52
  C276                 CHANNEL     0.919     0  04:35      0.51    0.23    0.50
  C277                 CHANNEL     0.918     0  04:36      0.54    0.23    0.49
  C278                 CHANNEL     0.918     0  04:37      0.58    0.23    0.47
  C279                 CHANNEL     0.918     0  04:38      0.66    0.23    0.42
  C280                 CHANNEL     0.919     0  04:38      0.49    0.40    0.57
  C281                 CHANNEL     0.933     0  04:35      0.50    0.41    0.57
  C282                 CHANNEL     0.933     0  04:35      0.50    0.41    0.57
  C283                 CHANNEL     0.936     0  04:36      0.51    0.41    0.56
  C284                 CHANNEL     0.935     0  04:36      0.52    0.41    0.56
  C285                 CHANNEL     0.935     0  04:37      0.53    0.41    0.54
  C286                 CHANNEL     0.935     0  04:37      0.64    0.29    0.53
  C287                 CHANNEL     0.934     0  04:38      0.64    0.29    0.53
  C288                 CHANNEL     0.934     0  04:38      0.64    0.29    0.54
  C289                 CHANNEL     0.934     0  04:39      0.64    0.29    0.54
  C290                 CHANNEL     0.934     0  04:39      0.63    0.29    0.54
  C291                 CHANNEL     0.934     0  04:40      0.63    0.29    0.54
  C292                 CHANNEL     0.946     0  04:40      0.64    0.30    0.54
  C293                 CHANNEL     0.946     0  04:40      0.64    0.30    0.54
  C294                 CHANNEL     0.945     0  04:41      0.64    0.30    0.54
  C295                 CHANNEL     0.945     0  04:41      0.64    0.30    0.54
  C296                 CHANNEL     0.945     0  04:41      0.64    0.30    0.54
  C297                 CHANNEL     0.945     0  04:42      0.63    0.30    0.54
  C298                 CHANNEL     0.945     0  04:42      0.63    0.30    0.55
  C299                 CHANNEL     0.945     0  04:42      0.62    0.30    0.55
  C300                 CHANNEL     0.945     0  04:43      0.60    0.30    0.57
  C301                 CHANNEL     0.945     0  04:43      0.98    0.22    0.35
  C302                 CHANNEL     0.657     0  04:15      0.51    0.13    0.46
  C303                 CHANNEL     0.453     0  04:20      0.37    0.26    0.67
  C353                 CONDUIT     0.025     0  04:15      1.30    0.01    0.07
  
  
  ***************************
  Flow Classification Summary
  ***************************
  
  -------------------------------------------------------------------------------------
                      Adjusted    ---------- Fraction of Time in Flow Class ---------- 
                       /Actual         Up    Down  Sub   Sup   Up    Down  Norm  Inlet 
  Conduit               Length    Dry  Dry   Dry   Crit  Crit  Crit  Crit  Ltd   Ctrl  
  -------------------------------------------------------------------------------------
  FID1123                 1.00   0.13  0.00  0.00  0.28  0.00  0.00  0.59  0.20  0.00
  FID1139                 1.00   0.14  0.00  0.00  0.00  0.00  0.00  0.86  0.00  0.00
  FID1148                 1.00   0.12  0.00  0.00  0.51  0.00  0.00  0.37  0.00  0.00
  FID1149                 1.00   0.12  0.00  0.00  0.72  0.03  0.00  0.13  0.59  0.00
  FID3364                 1.00   0.12  0.00  0.00  0.83  0.00  0.00  0.06  0.66  0.00
  FID3671                 1.00   0.15  0.00  0.00  0.00  0.00  0.00  0.85  0.00  0.00
  FID3672                 1.00   0.15  0.00  0.00  0.00  0.00  0.00  0.85  0.00  0.00
  FID3762                 1.00   0.02  0.13  0.00  0.86  0.00  0.00  0.00  0.68  0.00
  FID3765                 1.00   0.01  0.13  0.00  0.82  0.03  0.00  0.00  0.68  0.00
  FID4112                 1.00   0.14  0.00  0.00  0.00  0.00  0.00  0.86  0.00  0.00
  FID4186                 1.00   0.17  0.00  0.00  0.41  0.14  0.00  0.28  0.00  0.00
  FID4187                 1.00   0.20  0.00  0.00  0.00  0.00  0.00  0.80  0.00  0.00
  FID4201                 1.00   0.14  0.00  0.00  0.78  0.00  0.00  0.08  0.38  0.00
  FID4202                 1.00   0.14  0.00  0.00  0.00  0.00  0.00  0.86  0.00  0.00
  FID4203                 1.00   0.15  0.85  0.00  0.00  0.00  0.00  0.00  0.00  0.00
  FID4299                 1.00   0.17  0.00  0.00  0.00  0.00  0.00  0.83  0.00  0.00
  FID4372                 1.00   0.08  0.09  0.00  0.83  0.00  0.00  0.00  0.66  0.00
  FID4498                 1.00   0.12  0.00  0.00  0.81  0.00  0.00  0.07  0.64  0.00
  FID4806                 1.00   0.15  0.00  0.00  0.00  0.00  0.00  0.85  0.00  0.00
  FID4807                 1.00   0.21  0.00  0.00  0.00  0.00  0.00  0.79  0.00  0.00
  FID4882                 1.00   0.23  0.53  0.00  0.24  0.00  0.00  0.00  0.57  0.00
  FID4884                 1.00   0.12  0.00  0.00  0.00  0.03  0.00  0.85  0.02  0.00
  FID4914                 1.00   0.13  0.00  0.00  0.86  0.00  0.00  0.01  0.68  0.00
  FID4915                 1.00   0.16  0.00  0.00  0.79  0.00  0.00  0.05  0.51  0.00
  FID4916                 1.00   0.21  0.00  0.00  0.61  0.00  0.00  0.18  0.00  0.00
  FID4917                 1.00   0.22  0.00  0.00  0.71  0.00  0.00  0.07  0.60  0.00
  FID5307                 1.00   0.16  0.00  0.00  0.79  0.00  0.00  0.06  0.49  0.00
  FID5308                 1.00   0.16  0.00  0.00  0.00  0.00  0.00  0.84  0.00  0.00
  FID5312                 1.00   0.19  0.00  0.00  0.00  0.00  0.00  0.81  0.00  0.00
  FID5865                 1.00   0.12  0.00  0.00  0.25  0.10  0.00  0.54  0.26  0.00
  C9                      1.00   0.00  0.00  0.00  1.00  0.00  0.00  0.00  0.00  0.00
  C12                     1.00   0.00  0.00  0.00  1.00  0.00  0.00  0.00  0.00  0.00
  C13                     1.00   0.00  0.00  0.00  1.00  0.00  0.00  0.00  0.00  0.00
  C14                     1.00   0.00  0.00  0.00  1.00  0.00  0.00  0.00  0.00  0.00
  C52                     1.00   0.04  0.10  0.00  0.85  0.00  0.00  0.00  0.68  0.00
  C130                    1.00   0.14  0.00  0.00  0.61  0.00  0.00  0.25  0.00  0.00
  C131                    1.00   0.16  0.00  0.00  0.43  0.01  0.00  0.40  0.34  0.00
  C139                    1.00   0.12  0.53  0.00  0.33  0.00  0.02  0.00  0.51  0.00
  C191                    1.00   0.00  0.00  0.00  1.00  0.00  0.00  0.00  0.00  0.00
  C193                    1.00   0.00  0.00  0.00  1.00  0.00  0.00  0.00  0.00  0.00
  C194                    1.00   0.01  0.00  0.00  0.99  0.00  0.00  0.00  0.00  0.00
  C195                    1.00   0.01  0.00  0.00  0.99  0.00  0.00  0.00  0.00  0.00
  C196                    1.00   0.00  0.00  0.00  1.00  0.00  0.00  0.00  0.00  0.00
  C197                    1.00   0.01  0.00  0.00  0.99  0.00  0.00  0.00  0.00  0.00
  C198                    1.00   0.01  0.00  0.00  0.99  0.00  0.00  0.00  0.00  0.00
  C199                    1.00   0.01  0.00  0.00  0.99  0.00  0.00  0.00  0.00  0.00
  C200                    1.00   0.01  0.00  0.00  0.99  0.00  0.00  0.00  0.00  0.00
  C201                    1.00   0.01  0.00  0.00  0.99  0.00  0.00  0.00  0.00  0.00
  C202                    1.00   0.01  0.00  0.00  0.99  0.00  0.00  0.00  0.00  0.00
  C203                    1.00   0.02  0.00  0.00  0.98  0.00  0.00  0.00  0.00  0.00
  C204                    1.00   0.02  0.00  0.00  0.98  0.00  0.00  0.00  0.00  0.00
  C205                    1.00   0.02  0.00  0.00  0.98  0.00  0.00  0.00  0.00  0.00
  C206                    1.00   0.02  0.00  0.00  0.98  0.00  0.00  0.00  0.00  0.00
  C207                    1.00   0.02  0.00  0.00  0.98  0.00  0.00  0.00  0.00  0.00
  C208                    1.00   0.02  0.00  0.00  0.98  0.00  0.00  0.00  0.00  0.00
  C209                    1.00   0.02  0.00  0.00  0.98  0.00  0.00  0.00  0.00  0.00
  C210                    1.00   0.03  0.00  0.00  0.97  0.00  0.00  0.00  0.00  0.00
  C211                    1.00   0.03  0.00  0.00  0.97  0.00  0.00  0.00  0.00  0.00
  C212                    1.00   0.03  0.00  0.00  0.97  0.00  0.00  0.00  0.00  0.00
  C213                    1.00   0.03  0.00  0.00  0.97  0.00  0.00  0.00  0.00  0.00
  C214                    1.00   0.03  0.00  0.00  0.97  0.00  0.00  0.00  0.00  0.00
  C215                    1.00   0.03  0.00  0.00  0.97  0.00  0.00  0.00  0.58  0.00
  C216                    1.00   0.03  0.00  0.00  0.97  0.00  0.00  0.00  0.00  0.00
  C217                    1.00   0.03  0.00  0.00  0.97  0.00  0.00  0.00  0.00  0.00
  C218                    1.00   0.03  0.00  0.00  0.97  0.00  0.00  0.00  0.00  0.00
  C219                    1.00   0.04  0.00  0.00  0.96  0.00  0.00  0.00  0.00  0.00
  C220                    1.00   0.04  0.00  0.00  0.96  0.00  0.00  0.00  0.00  0.00
  C221                    1.00   0.05  0.00  0.00  0.95  0.00  0.00  0.00  0.00  0.00
  C222                    1.00   0.05  0.00  0.00  0.95  0.00  0.00  0.00  0.00  0.00
  C223                    1.00   0.05  0.00  0.00  0.95  0.00  0.00  0.00  0.01  0.00
  C224                    1.00   0.05  0.00  0.00  0.95  0.00  0.00  0.00  0.00  0.00
  C225                    1.00   0.05  0.00  0.00  0.95  0.00  0.00  0.00  0.00  0.00
  C226                    1.00   0.05  0.00  0.00  0.95  0.00  0.00  0.00  0.00  0.00
  C227                    1.00   0.06  0.00  0.00  0.94  0.00  0.00  0.00  0.00  0.00
  C228                    1.00   0.06  0.00  0.00  0.94  0.00  0.00  0.00  0.00  0.00
  C229                    1.00   0.06  0.00  0.00  0.94  0.00  0.00  0.00  0.00  0.00
  C230                    1.00   0.07  0.00  0.00  0.93  0.00  0.00  0.00  0.00  0.00
  C231                    1.00   0.07  0.00  0.00  0.93  0.00  0.00  0.00  0.00  0.00
  C232                    1.00   0.07  0.00  0.00  0.93  0.00  0.00  0.00  0.00  0.00
  C233                    1.00   0.07  0.00  0.00  0.93  0.00  0.00  0.00  0.00  0.00
  C234                    1.00   0.08  0.00  0.00  0.92  0.00  0.00  0.00  0.00  0.00
  C235                    1.00   0.08  0.00  0.00  0.92  0.00  0.00  0.00  0.00  0.00
  C236                    1.00   0.08  0.00  0.00  0.92  0.00  0.00  0.00  0.00  0.00
  C237                    1.00   0.08  0.00  0.00  0.92  0.00  0.00  0.00  0.00  0.00
  C238                    1.00   0.08  0.00  0.00  0.92  0.00  0.00  0.00  0.00  0.00
  C239                    1.00   0.09  0.00  0.00  0.91  0.00  0.00  0.00  0.00  0.00
  C240                    1.00   0.09  0.00  0.00  0.91  0.00  0.00  0.00  0.00  0.00
  C241                    1.00   0.09  0.00  0.00  0.91  0.00  0.00  0.00  0.00  0.00
  C242                    1.00   0.09  0.00  0.00  0.91  0.00  0.00  0.00  0.00  0.00
  C243                    1.00   0.09  0.00  0.00  0.91  0.00  0.00  0.00  0.00  0.00
  C244                    1.00   0.09  0.00  0.00  0.90  0.00  0.00  0.00  0.00  0.00
  C245                    1.00   0.10  0.00  0.00  0.90  0.00  0.00  0.00  0.00  0.00
  C246                    1.00   0.11  0.00  0.00  0.89  0.00  0.00  0.00  0.00  0.00
  C247                    1.00   0.11  0.00  0.00  0.89  0.00  0.00  0.00  0.00  0.00
  C248                    1.00   0.12  0.00  0.00  0.88  0.00  0.00  0.00  0.00  0.00
  C249                    1.00   0.11  0.03  0.00  0.86  0.00  0.00  0.00  0.01  0.00
  C250                    1.00   0.11  0.00  0.00  0.89  0.00  0.00  0.00  0.02  0.00
  C251                    1.00   0.11  0.00  0.00  0.89  0.00  0.00  0.00  0.02  0.00
  C252                    1.00   0.12  0.00  0.00  0.88  0.00  0.00  0.00  0.00  0.00
  C253                    1.00   0.12  0.00  0.00  0.87  0.00  0.00  0.00  0.00  0.00
  C254                    1.00   0.14  0.00  0.00  0.86  0.00  0.00  0.00  0.00  0.00
  C255                    1.00   0.12  0.05  0.00  0.83  0.00  0.00  0.00  0.01  0.00
  C256                    1.00   0.11  0.01  0.00  0.88  0.00  0.00  0.00  0.02  0.00
  C257                    1.00   0.11  0.00  0.00  0.88  0.01  0.00  0.00  0.01  0.00
  C258                    1.00   0.11  0.01  0.00  0.88  0.00  0.00  0.00  0.01  0.00
  C259                    1.00   0.11  0.00  0.00  0.89  0.00  0.00  0.00  0.06  0.00
  C260                    1.00   0.12  0.01  0.00  0.87  0.00  0.00  0.00  0.00  0.00
  C261                    1.00   0.12  0.00  0.00  0.88  0.00  0.00  0.00  0.02  0.00
  C262                    1.00   0.12  0.00  0.00  0.87  0.00  0.00  0.00  0.02  0.00
  C263                    1.00   0.12  0.00  0.00  0.88  0.00  0.00  0.00  0.00  0.00
  C264                    1.00   0.12  0.00  0.00  0.88  0.00  0.00  0.00  0.01  0.00
  C265                    1.00   0.12  0.01  0.00  0.88  0.00  0.00  0.00  0.00  0.00
  C266                    1.00   0.12  0.00  0.00  0.88  0.00  0.00  0.00  0.00  0.00
  C267                    1.00   0.12  0.06  0.00  0.82  0.00  0.00  0.00  0.00  0.00
  C268                    1.00   0.12  0.00  0.00  0.88  0.00  0.00  0.00  0.08  0.00
  C269                    1.00   0.13  0.00  0.00  0.87  0.00  0.00  0.00  0.00  0.00
  C270                    1.00   0.11  0.03  0.00  0.85  0.00  0.00  0.00  0.06  0.00
  C271                    1.00   0.11  0.00  0.00  0.89  0.00  0.00  0.00  0.01  0.00
  C272                    1.00   0.12  0.00  0.00  0.88  0.00  0.00  0.00  0.00  0.00
  C273                    1.00   0.12  0.00  0.00  0.88  0.00  0.00  0.00  0.02  0.00
  C274                    1.00   0.12  0.00  0.00  0.88  0.00  0.00  0.00  0.02  0.00
  C275                    1.00   0.14  0.00  0.00  0.86  0.00  0.00  0.00  0.01  0.00
  C276                    1.00   0.17  0.00  0.00  0.83  0.00  0.00  0.00  0.01  0.00
  C277                    1.00   0.19  0.00  0.00  0.81  0.00  0.00  0.00  0.00  0.00
  C278                    1.00   0.20  0.00  0.00  0.80  0.00  0.00  0.00  0.00  0.00
  C279                    1.00   0.15  0.07  0.00  0.79  0.00  0.00  0.00  0.01  0.00
  C280                    1.00   0.14  0.01  0.00  0.85  0.00  0.00  0.00  0.04  0.00
  C281                    1.00   0.14  0.00  0.00  0.86  0.00  0.00  0.00  0.04  0.00
  C282                    1.00   0.14  0.00  0.00  0.86  0.00  0.00  0.00  0.05  0.00
  C283                    1.00   0.15  0.00  0.00  0.85  0.00  0.00  0.00  0.03  0.00
  C284                    1.00   0.16  0.00  0.00  0.84  0.00  0.00  0.00  0.02  0.00
  C285                    1.00   0.17  0.00  0.00  0.83  0.00  0.00  0.00  0.00  0.00
  C286                    1.00   0.18  0.00  0.00  0.82  0.00  0.00  0.00  0.01  0.00
  C287                    1.00   0.13  0.06  0.00  0.80  0.00  0.00  0.00  0.00  0.00
  C288                    1.00   0.13  0.00  0.00  0.87  0.00  0.00  0.00  0.00  0.00
  C289                    1.00   0.23  0.00  0.00  0.77  0.00  0.00  0.00  0.00  0.00
  C290                    1.00   0.13  0.11  0.00  0.76  0.00  0.00  0.00  0.01  0.00
  C291                    1.00   0.13  0.00  0.00  0.87  0.00  0.00  0.00  0.06  0.00
  C292                    1.00   0.15  0.00  0.00  0.85  0.00  0.00  0.00  0.02  0.00
  C293                    1.00   0.15  0.00  0.00  0.85  0.00  0.00  0.00  0.01  0.00
  C294                    1.00   0.16  0.00  0.00  0.84  0.00  0.00  0.00  0.01  0.00
  C295                    1.00   0.18  0.00  0.00  0.82  0.00  0.00  0.00  0.01  0.00
  C296                    1.00   0.14  0.05  0.00  0.81  0.00  0.00  0.00  0.01  0.00
  C297                    1.00   0.14  0.00  0.00  0.86  0.00  0.00  0.00  0.01  0.00
  C298                    1.00   0.22  0.00  0.00  0.78  0.00  0.00  0.00  0.01  0.00
  C299                    1.00   0.23  0.00  0.00  0.77  0.00  0.00  0.00  0.01  0.00
  C300                    1.00   0.24  0.00  0.00  0.76  0.00  0.00  0.00  0.00  0.00
  C301                    1.00   0.25  0.00  0.00  0.75  0.00  0.00  0.00  0.00  0.00
  C302                    1.00   0.00  0.00  0.00  1.00  0.00  0.00  0.00  0.00  0.00
  C303                    1.00   0.00  0.00  0.00  1.00  0.00  0.00  0.00  0.00  0.00
  C353                    1.00   0.15  0.00  0.00  0.00  0.00  0.00  0.85  0.00  0.00
  
  
  *************************
  Conduit Surcharge Summary
  *************************
  
  ----------------------------------------------------------------------------
                                                           Hours        Hours 
                         --------- Hours Full --------   Above Full   Capacity
  Conduit                Both Ends  Upstream  Dnstream   Normal Flow   Limited
  ----------------------------------------------------------------------------
  FID4498                     0.01      0.01      0.68      0.01         0.01
  FID4882                     0.01      0.01      1.98      0.01         0.01
  FID4914                     0.01      0.01      2.62      0.01         0.01
  C199                        0.01      0.01      0.01      8.52         0.01
  C200                        0.01      0.01      0.01      8.46         0.01
  
  
  ***************************
  Link Pollutant Load Summary
  ***************************
  
  --------------------------------------------------------------
                                 TSS            TP           TDP
  Link                            kg            kg            kg
  --------------------------------------------------------------
  FID1123                     62.617         0.015         0.019
  FID1139                    346.704         0.042         0.123
  FID1148                    598.666         0.134         0.217
  FID1149                    598.358         0.134         0.218
  FID3364                    687.943         0.163         0.233
  FID3671                     37.999         0.021         0.005
  FID3672                    144.833         0.030         0.058
  FID3762                    379.559         0.140         0.087
  FID3765                    646.699         0.239         0.192
  FID4112                    238.109         0.079         0.107
  FID4186                     54.505         0.032         0.008
  FID4187                     54.001         0.032         0.008
  FID4201                    141.062         0.059         0.074
  FID4202                    136.316         0.059         0.074
  FID4203                      0.000         0.000         0.000
  FID4299                     21.237         0.011         0.009
  FID4372                      4.606         0.015         0.001
  FID4498                    319.169         0.058         0.129
  FID4806                   1882.031         0.382         0.611
  FID4807                      0.000         0.001         0.004
  FID4882                      0.056         0.000         0.000
  FID4884                    250.314         0.041         0.078
  FID4914                     85.992         0.027         0.014
  FID4915                      6.426         0.001         0.007
  FID4916                      1.330         0.001         0.007
  FID4917                      0.285         0.001         0.007
  FID5307                     67.759         0.008         0.020
  FID5308                     19.644         0.008         0.011
  FID5312                     63.811         0.008         0.019
  FID5865                    838.944         0.584         0.885
  C9                         244.110         1.074         1.285
  C12                        242.611         1.057         1.262
  C13                        248.997         1.052         1.259
  C14                        163.995         0.692         0.831
  C52                        858.163         0.214         0.265
  C130                       100.320         0.010         0.032
  C131                        99.327         0.010         0.032
  C139                         3.782         0.000         0.001
  C191                       346.367         0.735         0.884
  C193                       345.664         0.714         0.856
  C194                       343.635         0.709         0.852
  C195                       343.232         0.707         0.850
  C196                       308.708         0.719         0.884
  C197                       990.004         0.942         1.038
  C198                      1369.346         1.079         1.122
  C199                      1371.190         1.076         1.117
  C200                      1369.950         1.072         1.112
  C201                      1373.651         1.067         1.105
  C202                      1372.016         1.065         1.101
  C203                      1372.181         1.061         1.096
  C204                      1368.999         1.059         1.095
  C205                      1857.021         1.168         1.308
  C206                      2093.915         1.244         1.412
  C207                      2101.789         1.240         1.406
  C208                      2149.493         1.245         1.401
  C209                      2141.139         1.242         1.398
  C210                      2141.550         1.240         1.396
  C211                      2140.285         1.238         1.393
  C212                      2839.136         1.496         1.651
  C213                      2847.349         1.497         1.656
  C214                      2849.880         1.495         1.654
  C215                      3025.800         1.517         1.644
  C216                      2972.707         1.508         1.635
  C217                      3110.354         1.564         1.705
  C218                      3966.022         1.776         1.966
  C219                      3974.187         1.772         1.961
  C220                      3979.398         1.767         1.954
  C221                      4047.026         1.780         1.951
  C222                      4411.539         1.862         2.079
  C223                      4904.952         1.958         2.288
  C224                      4939.114         1.954         2.283
  C225                      4934.686         1.952         2.275
  C226                      4936.053         1.948         2.269
  C227                      5085.978         1.977         2.254
  C228                      5099.472         1.994         2.249
  C229                      5681.959         2.140         2.347
  C230                      5700.295         2.149         2.354
  C231                      5734.196         2.144         2.346
  C232                      5718.430         2.138         2.337
  C233                      5796.176         2.136         2.322
  C234                      5757.861         2.136         2.322
  C235                      5797.988         2.146         2.346
  C236                      5801.235         2.160         2.346
  C237                      5813.972         2.156         2.340
  C238                      6288.606         2.240         2.414
  C239                      6280.180         2.237         2.411
  C240                      6273.828         2.236         2.410
  C241                      6293.120         2.244         2.420
  C242                      6361.403         2.250         2.437
  C243                      6452.889         2.268         2.419
  C244                      6503.092         2.301         2.430
  C245                      6503.315         2.300         2.430
  C246                      8439.004         2.672         3.053
  C247                      8467.868         2.696         3.046
  C248                      8486.432         2.690         3.042
  C249                      8460.362         2.688         3.032
  C250                      8474.382         2.693         3.040
  C251                      8477.698         2.692         3.040
  C252                      9162.102         2.854         3.270
  C253                      9178.635         2.851         3.270
  C254                      9191.792         2.847         3.265
  C255                      9194.845         2.844         3.258
  C256                      9460.127         2.899         3.379
  C257                      9402.496         2.903         3.374
  C258                      9408.353         2.902         3.373
  C259                      9421.198         2.899         3.375
  C260                      9376.871         2.897         3.364
  C261                      9636.237         2.936         3.441
  C262                      9699.673         2.932         3.446
  C263                      9703.372         2.951         3.474
  C264                      9966.842         3.041         3.645
  C265                     1.038e+04         3.479         4.262
  C266                     1.044e+04         3.488         4.287
  C267                     1.037e+04         3.479         4.261
  C268                     1.040e+04         3.486         4.277
  C269                     1.031e+04         3.475         4.230
  C270                     1.040e+04         3.485         4.258
  C271                     1.039e+04         3.475         4.230
  C272                     1.044e+04         3.475         4.228
  C273                     1.102e+04         3.617         4.470
  C274                     1.096e+04         3.612         4.459
  C275                     1.090e+04         3.607         4.448
  C276                     1.087e+04         3.604         4.443
  C277                     1.083e+04         3.599         4.433
  C278                     1.082e+04         3.598         4.430
  C279                     1.082e+04         3.598         4.432
  C280                     1.079e+04         3.594         4.421
  C281                     1.110e+04         3.633         4.537
  C282                     1.114e+04         3.635         4.544
  C283                     1.122e+04         3.644         4.574
  C284                     1.121e+04         3.644         4.574
  C285                     1.121e+04         3.646         4.578
  C286                     1.118e+04         3.646         4.575
  C287                     1.116e+04         3.644         4.570
  C288                     1.112e+04         3.641         4.561
  C289                     1.111e+04         3.640         4.558
  C290                     1.110e+04         3.639         4.556
  C291                     1.105e+04         3.634         4.539
  C292                     1.147e+04         3.678         4.641
  C293                     1.145e+04         3.676         4.635
  C294                     1.145e+04         3.676         4.637
  C295                     1.139e+04         3.671         4.624
  C296                     1.140e+04         3.671         4.625
  C297                     1.143e+04         3.673         4.632
  C298                     1.142e+04         3.673         4.632
  C299                     1.138e+04         3.669         4.622
  C300                     1.143e+04         3.672         4.630
  C301                     1.135e+04         3.665         4.613
  C302                       243.497         1.069         1.279
  C303                       346.273         0.727         0.872
  C353                       369.350         0.039         0.086
  

  Analysis begun on:  Tue Oct 10 20:11:41 2017
  Analysis ended on:  Tue Oct 10 20:11:58 2017
  Total elapsed time: 00:00:17