
  EPA STORM WATER MANAGEMENT MODEL - VERSION 5.1 (Build 5.1.010)
  --------------------------------------------------------------

  WARNING 04: minimum elevation drop used for Conduit C199
  WARNING 04: minimum elevation drop used for Conduit C200
  WARNING 02: maximum depth increased for Node FID1955
  WARNING 02: maximum depth increased for Node FID1960
  WARNING 02: maximum depth increased for Node FID1965
  WARNING 02: maximum depth increased for Node FID1968
  WARNING 02: maximum depth increased for Node FID2244
  WARNING 02: maximum depth increased for Node FID2442
  WARNING 02: maximum depth increased for Node FID2446
  WARNING 02: maximum depth increased for Node FID5504
  WARNING 02: maximum depth increased for Node FID5527
  WARNING 02: maximum depth increased for Node AFID6926
  WARNING 02: maximum depth increased for Node AFID7376
  
  *********************************************************
  NOTE: The summary statistics displayed in this report are
  based on results found at every computational time step,  
  not just on results from each reporting time step.
  *********************************************************
  
  ****************
  Analysis Options
  ****************
  Flow Units ............... CMS
  Process Models:
    Rainfall/Runoff ........ YES
    RDII ................... NO
    Snowmelt ............... NO
    Groundwater ............ NO
    Flow Routing ........... YES
    Ponding Allowed ........ YES
    Water Quality .......... YES
  Infiltration Method ...... GREEN_AMPT
  Flow Routing Method ...... DYNWAVE
  Starting Date ............ MAY-06-2016 15:00:00
  Ending Date .............. MAY-07-2016 00:00:00
  Antecedent Dry Days ...... 0.0
  Report Time Step ......... 00:01:00
  Wet Time Step ............ 00:01:00
  Dry Time Step ............ 01:00:00
  Routing Time Step ........ 5.00 sec
  Variable Time Step ....... YES
  Maximum Trials ........... 8
  Number of Threads ........ 3
  Head Tolerance ........... 0.001500 m
  
  
  **************************        Volume         Depth
  Runoff Quantity Continuity     hectare-m            mm
  **************************     ---------       -------
  Total Precipitation ......         2.583         6.709
  Evaporation Loss .........         0.000         0.000
  Infiltration Loss ........         1.307         3.393
  Surface Runoff ...........         0.856         2.223
  Final Storage ............         0.421         1.095
  Continuity Error (%) .....        -0.033
  
  
  **************************           TSS            TP           TDP
  Runoff Quality Continuity             kg            kg            kg
  **************************    ----------    ----------    ----------
  Initial Buildup ..........         0.000         0.000         0.000
  Surface Buildup ..........     15967.675         8.818        17.573
  Wet Deposition ...........         0.000         0.000         0.000
  Sweeping Removal .........         0.000         0.000         0.000
  Infiltration Loss ........         0.000         0.000         0.000
  BMP Removal ..............         0.824         0.000         0.001
  Surface Runoff ...........      8240.165         4.141         8.577
  Remaining Buildup ........      7726.686         4.676         8.995
  Continuity Error (%) .....         0.000         0.000         0.000
  
  
  **************************        Volume        Volume
  Flow Routing Continuity        hectare-m      10^6 ltr
  **************************     ---------     ---------
  Dry Weather Inflow .......         0.000         0.000
  Wet Weather Inflow .......         0.856         8.561
  Groundwater Inflow .......         0.000         0.000
  RDII Inflow ..............         0.000         0.000
  External Inflow ..........         1.384        13.843
  External Outflow .........         1.596        15.957
  Flooding Loss ............         0.000         0.000
  Evaporation Loss .........         0.000         0.000
  Exfiltration Loss ........         0.000         0.000
  Initial Stored Volume ....         0.000         0.000
  Final Stored Volume ......         0.652         6.516
  Continuity Error (%) .....        -0.309
  
  
  **************************           TSS            TP           TDP
  Quality Routing Continuity            kg            kg            kg
  **************************    ----------    ----------    ----------
  Dry Weather Inflow .......         0.000         0.000         0.000
  Wet Weather Inflow .......      8223.346         4.109         8.535
  Groundwater Inflow .......         0.000         0.000         0.000
  RDII Inflow ..............         0.000         0.000         0.000
  External Inflow ..........       137.985         1.039         1.284
  External Outflow .........      7768.008         4.688         8.968
  Flooding Loss ............         0.000         0.000         0.000
  Exfiltration Loss ........         0.000         0.000         0.000
  Mass Reacted .............         0.000         0.000         0.000
  Initial Stored Mass ......         0.000         0.000         0.000
  Final Stored Mass ........        49.544         0.416         0.614
  Continuity Error (%) .....         6.503         0.850         2.413
  
  
  *************************
  Highest Continuity Errors
  *************************
  Node FID2824 (1.90%)
  Node FID2827 (1.75%)
  Node J72 (1.70%)
  Node J19 (1.59%)
  Node J81 (1.58%)
  
  
  ***************************
  Time-Step Critical Elements
  ***************************
  Link C241 (90.77%)
  Link C14 (8.31%)
  
  
  ********************************
  Highest Flow Instability Indexes
  ********************************
  All links are stable.
  
  
  *************************
  Routing Time Step Summary
  *************************
  Minimum Time Step           :     0.63 sec
  Average Time Step           :     0.94 sec
  Maximum Time Step           :     5.00 sec
  Percent in Steady State     :     0.00
  Average Iterations per Step :     2.00
  Percent Not Converging      :     0.00
  
  
  ***************************
  Subcatchment Runoff Summary
  ***************************
  
  --------------------------------------------------------------------------------------------------------
                            Total      Total      Total      Total      Total       Total     Peak  Runoff
                           Precip      Runon       Evap      Infil     Runoff      Runoff   Runoff   Coeff
  Subcatchment                 mm         mm         mm         mm         mm    10^6 ltr      CMS
  --------------------------------------------------------------------------------------------------------
  S0                         5.84       0.00       0.00       5.12       0.53        0.00     0.00   0.091
  S1                         5.84       0.00       0.00       2.87       2.17        0.21     0.07   0.371
  S2                         6.35       0.00       0.00       2.33       3.02        0.52     0.16   0.475
  S3                         5.84       0.00       0.00       4.00       1.36        0.04     0.03   0.232
  S4                         5.84       0.00       0.00       3.06       2.04        0.20     0.13   0.350
  S6                         6.35       0.00       0.00       1.50       3.64        0.07     0.02   0.573
  S7                         6.35       0.00       0.00       2.19       3.31        1.29     0.34   0.521
  S8                         6.35       0.00       0.00       1.50       3.66        0.00     0.00   0.576
  S9                         6.35       0.00       0.00       2.16       3.16        0.00     0.00   0.498
  S10                        6.35       0.00       0.00       2.27       3.08        0.01     0.00   0.486
  S11                        6.35       0.00       0.00       5.11       0.94        0.00     0.00   0.147
  S12                        6.35       0.00       0.00       2.48       2.93        0.00     0.00   0.461
  S13                        6.35       0.00       0.00       2.70       2.74        0.21     0.06   0.431
  S14                        6.35       0.00       0.00       4.61       1.31        0.01     0.00   0.207
  S16                        6.35       0.00       0.00       1.69       4.04        0.22     0.06   0.636
  S17                        6.35       0.00       0.00       2.42       2.94        0.56     0.17   0.463
  S18                        6.35       0.00       0.00       1.83       3.42        0.00     0.00   0.538
  S19                        6.35       0.00       0.00       3.72       1.98        0.04     0.01   0.312
  S20                        6.35       0.00       0.00       2.57       2.85        0.02     0.01   0.449
  S21                        6.35       0.00       0.00       3.25       0.68        0.36     0.08   0.107
  S22                        6.35       0.00       0.00       2.10       3.21        0.00     0.00   0.505
  S23                        6.35       0.00       0.00       4.05       1.74        0.03     0.01   0.274
  S24                        6.35       0.00       0.00       3.85       1.88        0.04     0.01   0.296
  S25                        6.35       0.00       0.00       2.77       2.70        0.03     0.01   0.424
  S27                        6.35       0.00       0.00       3.09       2.46        0.01     0.01   0.388
  S28                        5.84       0.00       0.00       5.83       0.01        0.00     0.00   0.001
  S29                        5.84       0.00       0.00       5.80       0.03        0.00     0.00   0.005
  S30                        6.35       0.00       0.00       6.33       0.02        0.00     0.00   0.002
  S31                        6.35       0.00       0.00       6.34       0.01        0.00     0.00   0.001
  S32                        6.35       0.00       0.00       4.82       1.16        0.00     0.00   0.182
  S33                        6.35       0.00       0.00       1.94       3.32        0.04     0.01   0.524
  S34                        6.35       0.00       0.00       3.55       0.96        0.34     0.08   0.152
  S35                        6.35       0.00       0.00       3.84       1.90        0.01     0.00   0.299
  S36                        6.35       0.00       0.00       5.16       0.90        0.01     0.01   0.142
  S37                        6.35       0.00       0.00       2.23       3.11        0.02     0.01   0.489
  S39                        6.35       0.00       0.00       3.97       1.79        0.27     0.09   0.282
  S40                        6.35       0.00       0.00       4.58       1.33        0.03     0.01   0.209
  S41                        6.35       0.00       0.00       2.55       2.86        0.39     0.12   0.450
  S42                        6.35       0.00       0.00       2.91       2.59        0.26     0.08   0.407
  S43                        6.35       0.00       0.00       4.88       1.11        0.02     0.01   0.175
  S44                        6.35       0.00       0.00       2.97       2.53        0.57     0.18   0.399
  S45                        8.13       0.00       0.00       4.86       2.67        0.00     0.00   0.328
  S47                        8.13       0.00       0.00       3.88       3.45        0.15     0.12   0.425
  S48                        8.13       0.00       0.00       4.48       2.99        0.01     0.01   0.368
  S49                        8.13       0.00       0.00       4.02       3.31        0.62     0.35   0.408
  S51                        8.13       0.00       0.00       7.08       0.86        0.01     0.01   0.106
  S52                        8.13       0.00       0.00       4.31       3.10        0.21     0.16   0.381
  S53                        8.13       0.00       0.00       4.17       3.19        0.45     0.27   0.393
  S54                        8.13       0.00       0.00       5.14       2.41        0.23     0.07   0.297
  S55                        8.13       0.00       0.00       4.32       3.06        0.50     0.15   0.377
  S56                        8.13       0.00       0.00       6.08       1.66        0.00     0.00   0.204
  S57                        8.13       0.00       0.00       3.84       3.46        0.03     0.01   0.426
  S58                        8.13       0.00       0.00       4.63       2.82        0.11     0.03   0.347
  S59                        8.13       0.00       0.00       7.09       0.83        0.02     0.01   0.103
  S60                        8.13       0.00       0.00       5.98       1.73        0.05     0.01   0.213
  S61                        8.13       0.00       0.00       7.24       0.72        0.01     0.00   0.089
  S62                        8.13       0.00       0.00       6.79       1.09        0.03     0.02   0.134
  S63                        6.35       0.00       0.00       5.42       0.70        0.01     0.00   0.111
  S64                        6.35       0.00       0.00       3.15       2.42        0.03     0.02   0.380
  S65                        6.35       0.00       0.00       4.40       1.46        0.25     0.08   0.230
  
  
  ****************************
  Subcatchment Washoff Summary
  ****************************
  
  --------------------------------------------------------------
                                 TSS            TP           TDP
  Subcatchment                    kg            kg            kg
  --------------------------------------------------------------
  S0                           0.420         0.000         0.001
  S1                         123.286         0.029         0.376
  S2                         349.516         0.112         0.548
  S3                          49.096         0.012         0.141
  S4                         179.599         0.047         0.355
  S6                          15.754         0.003         0.076
  S7                         330.152         1.020         0.381
  S8                           1.146         0.000         0.000
  S9                           1.314         0.000         0.000
  S10                         13.250         0.004         0.004
  S11                          1.335         0.000         0.000
  S12                          0.764         0.000         0.000
  S13                         78.679         0.016         0.310
  S14                         23.343         0.011         0.011
  S16                        373.741         0.051         0.073
  S17                        410.626         0.142         0.601
  S18                          1.352         0.000         0.000
  S19                         70.914         0.035         0.038
  S20                         23.939         0.009         0.005
  S21                       1134.870         0.313         0.883
  S22                          8.734         0.003         0.000
  S23                         43.217         0.029         0.045
  S24                         44.623         0.013         0.066
  S25                         32.610         0.021         0.031
  S27                         25.433         0.010         0.006
  S28                          0.000         0.000         0.000
  S29                          0.000         0.000         0.000
  S30                          0.000         0.000         0.000
  S31                          0.000         0.000         0.000
  S32                          9.573         0.006         0.009
  S33                         43.224         0.015         0.020
  S34                        379.137         0.419         0.339
  S35                         14.523         0.006         0.005
  S36                         26.235         0.017         0.024
  S37                         21.493         0.010         0.009
  S39                        375.927         0.172         0.422
  S40                         60.389         0.038         0.055
  S41                        332.965         0.103         0.409
  S42                        272.465         0.098         0.246
  S43                         45.971         0.030         0.047
  S44                        587.630         0.226         0.565
  S45                          2.089         0.001         0.000
  S47                        125.087         0.048         0.088
  S48                         13.050         0.005         0.001
  S49                        486.570         0.196         0.446
  S51                         22.429         0.015         0.023
  S52                        172.218         0.062         0.155
  S53                        310.702         0.095         0.387
  S54                        281.295         0.133         0.196
  S55                        438.815         0.192         0.368
  S56                          0.094         0.000         0.001
  S57                         18.569         0.011         0.016
  S58                        116.718         0.040         0.080
  S59                         71.052         0.018         0.058
  S60                         67.126         0.044         0.069
  S61                         24.089         0.007         0.014
  S62                         58.334         0.040         0.064
  S63                         25.866         0.009         0.046
  S64                         33.370         0.023         0.038
  S65                        465.443         0.182         0.423
  --------------------------------------------------------------
  System                    8240.165         4.141         8.577
  
  
  ******************
  Node Depth Summary
  ******************
  
  ---------------------------------------------------------------------------------
                                 Average  Maximum  Maximum  Time of Max    Reported
                                   Depth    Depth      HGL   Occurrence   Max Depth
  Node                 Type       Meters   Meters   Meters  days hr:min      Meters
  ---------------------------------------------------------------------------------
  FID1936              JUNCTION     0.16     0.35  1376.65     0  04:05        0.11
  FID1955              JUNCTION     0.17     0.30  1376.22     0  04:15        0.09
  FID1960              JUNCTION     0.15     0.26  1376.12     0  04:15        0.08
  FID1965              JUNCTION     0.15     0.25  1376.55     0  04:15        0.07
  FID1968              JUNCTION     0.14     0.20  1376.60     0  04:15        0.06
  FID2239              JUNCTION     0.15     0.27  1374.78     0  04:05        0.08
  FID2241              JUNCTION     0.13     0.19  1373.32     0  04:05        0.06
  FID2242              JUNCTION     0.14     0.21  1374.25     0  04:05        0.06
  FID2244              JUNCTION     0.13     0.19  1374.55     0  03:30        0.06
  FID2440              JUNCTION     0.44     0.68  1374.93     0  04:21        0.21
  FID2442              JUNCTION     0.00     0.00  1375.27     0  00:00        0.00
  FID2446              JUNCTION     0.16     0.44  1376.24     0  04:05        0.13
  FID2447              JUNCTION     0.15     0.39  1376.09     0  04:05        0.12
  FID2455              JUNCTION     0.37     0.67  1374.65     0  04:31        0.20
  FID2711              JUNCTION     0.13     0.23  1370.41     0  04:05        0.07
  FID2719              JUNCTION     0.17     0.40  1370.50     0  04:05        0.12
  FID2720              JUNCTION     0.16     0.34  1370.54     0  04:05        0.10
  FID2824              JUNCTION     0.12     0.18  1371.46     0  04:10        0.05
  FID2827              JUNCTION     0.13     0.22  1371.52     0  04:10        0.07
  FID2828              JUNCTION     0.14     0.22  1371.54     0  04:10        0.07
  FID2832              JUNCTION     0.17     0.29  1370.89     0  04:10        0.09
  FID2833              JUNCTION     0.21     0.44  1371.06     0  04:10        0.13
  FID2839              JUNCTION     0.20     0.37  1371.57     0  04:10        0.11
  FID2873              JUNCTION     0.16     0.27  1370.97     0  04:10        0.08
  FID2964              JUNCTION     0.19     0.32  1371.10     0  04:10        0.10
  FID2965              JUNCTION     0.47     0.82  1371.08     0  04:45        0.25
  FID4584              JUNCTION     0.13     0.25  1371.59     0  04:10        0.08
  FID5068              JUNCTION     0.13     0.19  1375.57     0  03:30        0.06
  FID5072              JUNCTION     0.55     0.82  1374.11     0  04:31        0.25
  FID5140              JUNCTION     0.16     0.24  1373.46     0  03:30        0.07
  FID5435              JUNCTION     0.16     0.25  1373.00     0  04:05        0.08
  FID5437              JUNCTION     0.13     0.17  1373.12     0  03:30        0.05
  FID5503              JUNCTION     0.12     0.16  1371.49     0  03:55        0.05
  FID5504              JUNCTION     0.15     0.24  1371.60     0  04:10        0.07
  FID5527              JUNCTION     0.14     0.20  1372.70     0  04:10        0.06
  FID5568              JUNCTION     0.52     0.82  1373.21     0  04:33        0.25
  FID5784              JUNCTION     0.53     0.83  1372.83     0  04:34        0.25
  FID5785              JUNCTION     0.14     0.23  1374.66     0  04:05        0.07
  AFID6926             JUNCTION     0.15     0.24  1370.04     0  04:15        0.07
  AFID7360             JUNCTION     0.53     0.90  1371.03     0  04:44        0.27
  AFID7363             JUNCTION     0.51     0.88  1371.05     0  04:45        0.27
  AFID7376             JUNCTION     0.19     0.36  1371.59     0  04:10        0.11
  AFID7377             JUNCTION     0.43     0.70  1371.38     0  04:45        0.21
  AFID7705             JUNCTION     0.54     0.65  1375.62     0  04:15        0.20
  AFID7706             JUNCTION     0.60     0.71  1375.62     0  04:15        0.22
  AFID7792             JUNCTION     0.18     0.35  1375.15     0  04:05        0.11
  AFID8223             JUNCTION     0.53     0.83  1372.83     0  04:34        0.25
  J1                   JUNCTION     0.78     0.81  1375.80     0  04:18        0.25
  FID4901              JUNCTION     0.51     0.59  1375.66     0  04:16        0.18
  J9                   JUNCTION     0.66     0.70  1375.79     0  04:18        0.21
  J11                  JUNCTION     0.51     0.55  1375.76     0  04:18        0.17
  J12                  JUNCTION     0.51     0.58  1375.69     0  04:17        0.18
  J13                  JUNCTION     0.50     0.59  1375.67     0  04:17        0.18
  FID4902              JUNCTION     0.52     0.61  1375.66     0  04:16        0.19
  J14                  JUNCTION     0.42     0.57  1375.48     0  04:06        0.17
  J15                  JUNCTION     0.39     0.59  1375.26     0  04:08        0.18
  J16                  JUNCTION     0.40     0.60  1375.24     0  04:08        0.18
  FID2449              JUNCTION     0.45     0.69  1375.00     0  04:23        0.21
  J17                  JUNCTION     0.36     0.67  1374.64     0  04:31        0.20
  J19                  JUNCTION     0.50     0.90  1374.45     0  04:35        0.28
  FID5069              JUNCTION     0.57     0.85  1374.10     0  04:31        0.26
  FID5139              JUNCTION     0.53     0.83  1373.18     0  04:32        0.25
  J24                  JUNCTION     0.53     0.83  1373.20     0  04:32        0.25
  FID4984              JUNCTION     0.55     0.85  1372.81     0  04:34        0.26
  FID2669              JUNCTION     0.39     0.70  1369.14     0  04:40        0.21
  FID2712              JUNCTION     0.41     0.74  1369.93     0  04:36        0.23
  FID2718              JUNCTION     0.42     0.76  1370.00     0  04:36        0.23
  FID2838              JUNCTION     0.60     0.98  1370.92     0  04:37        0.30
  FID2825              JUNCTION     0.65     1.05  1370.96     0  04:41        0.32
  FID2823              JUNCTION     0.69     1.11  1370.98     0  04:43        0.34
  FID5505              JUNCTION     0.59     0.98  1371.01     0  04:43        0.30
  FID5436              JUNCTION     0.54     0.82  1372.15     0  04:39        0.25
  FID5438              JUNCTION     0.48     0.76  1372.19     0  04:39        0.23
  J49                  JUNCTION     0.54     0.63  1375.65     0  04:16        0.19
  J50                  JUNCTION     0.57     0.67  1375.64     0  04:16        0.21
  J51                  JUNCTION     0.62     0.73  1375.63     0  04:15        0.22
  J52                  JUNCTION     0.64     0.75  1375.63     0  04:15        0.23
  J53                  JUNCTION     0.42     0.57  1375.49     0  04:06        0.17
  J54                  JUNCTION     0.42     0.55  1375.51     0  04:21        0.17
  J55                  JUNCTION     0.47     0.58  1375.61     0  04:15        0.18
  J56                  JUNCTION     0.45     0.56  1375.59     0  04:15        0.17
  J57                  JUNCTION     0.43     0.54  1375.56     0  04:21        0.16
  J58                  JUNCTION     0.43     0.55  1375.53     0  04:21        0.17
  FID1935              JUNCTION     0.43     0.57  1375.46     0  04:06        0.18
  J59                  JUNCTION     0.42     0.57  1375.44     0  04:07        0.17
  J60                  JUNCTION     0.42     0.57  1375.39     0  04:08        0.17
  J61                  JUNCTION     0.40     0.56  1375.33     0  04:08        0.17
  J62                  JUNCTION     0.39     0.56  1375.31     0  04:08        0.17
  J63                  JUNCTION     0.40     0.59  1375.28     0  04:08        0.18
  J64                  JUNCTION     0.39     0.59  1375.21     0  04:09        0.18
  J65                  JUNCTION     0.36     0.58  1375.15     0  04:10        0.18
  J66                  JUNCTION     0.44     0.68  1374.89     0  04:21        0.21
  J67                  JUNCTION     0.43     0.67  1374.82     0  04:22        0.21
  J68                  JUNCTION     0.42     0.67  1374.73     0  04:29        0.20
  J69                  JUNCTION     0.56     0.89  1374.62     0  04:31        0.27
  J70                  JUNCTION     0.55     0.90  1374.55     0  04:33        0.27
  J71                  JUNCTION     0.53     0.90  1374.50     0  04:34        0.27
  J72                  JUNCTION     0.55     0.82  1374.17     0  04:34        0.25
  J73                  JUNCTION     0.57     0.85  1374.07     0  04:32        0.26
  J74                  JUNCTION     0.57     0.84  1373.83     0  04:35        0.26
  J75                  JUNCTION     0.58     0.85  1373.69     0  04:37        0.26
  J76                  JUNCTION     0.53     0.83  1373.17     0  04:32        0.25
  J77                  JUNCTION     0.53     0.83  1373.04     0  04:32        0.25
  J78                  JUNCTION     0.53     0.83  1372.90     0  04:33        0.25
  J79                  JUNCTION     0.53     0.83  1372.84     0  04:33        0.25
  J80                  JUNCTION     0.45     0.74  1372.22     0  04:39        0.22
  J81                  JUNCTION     0.51     0.80  1371.79     0  04:45        0.24
  J82                  JUNCTION     0.50     0.79  1371.72     0  04:45        0.24
  J83                  JUNCTION     0.44     0.74  1371.54     0  04:46        0.22
  J84                  JUNCTION     0.40     0.67  1371.31     0  04:45        0.20
  J85                  JUNCTION     0.41     0.70  1371.22     0  04:46        0.21
  J86                  JUNCTION     0.43     0.76  1371.13     0  04:46        0.23
  J87                  JUNCTION     0.50     0.87  1371.06     0  04:45        0.26
  J88                  JUNCTION     0.57     0.96  1371.01     0  04:44        0.29
  J89                  JUNCTION     0.61     1.01  1371.00     0  04:43        0.31
  J90                  JUNCTION     0.57     0.96  1370.91     0  04:37        0.29
  J91                  JUNCTION     0.57     0.96  1370.84     0  04:37        0.29
  J92                  JUNCTION     0.57     0.96  1370.79     0  04:37        0.29
  J93                  JUNCTION     0.57     0.96  1370.68     0  04:36        0.29
  J94                  JUNCTION     0.57     0.96  1370.62     0  04:34        0.29
  J95                  JUNCTION     0.57     0.96  1370.59     0  04:34        0.29
  J96                  JUNCTION     0.56     0.95  1370.51     0  04:34        0.29
  J97                  JUNCTION     0.55     0.94  1370.43     0  04:35        0.29
  J98                  JUNCTION     0.54     0.93  1370.37     0  04:36        0.28
  J99                  JUNCTION     0.52     0.91  1370.30     0  04:36        0.28
  J100                 JUNCTION     0.51     0.88  1370.25     0  04:37        0.27
  J101                 JUNCTION     0.48     0.85  1370.17     0  04:37        0.26
  J102                 JUNCTION     0.42     0.76  1370.03     0  04:36        0.23
  J103                 JUNCTION     0.41     0.75  1369.97     0  04:36        0.23
  J104                 JUNCTION     0.40     0.73  1369.89     0  04:37        0.22
  J105                 JUNCTION     0.40     0.72  1369.84     0  04:37        0.22
  J106                 JUNCTION     0.38     0.69  1369.77     0  04:37        0.21
  J107                 JUNCTION     0.38     0.69  1369.63     0  04:38        0.21
  J108                 JUNCTION     0.38     0.69  1369.49     0  04:38        0.21
  J109                 JUNCTION     0.38     0.69  1369.38     0  04:39        0.21
  J110                 JUNCTION     0.38     0.70  1369.28     0  04:39        0.21
  J111                 JUNCTION     0.38     0.70  1369.18     0  04:39        0.21
  J112                 JUNCTION     0.38     0.70  1369.02     0  04:40        0.21
  J113                 JUNCTION     0.38     0.70  1368.93     0  04:40        0.21
  J114                 JUNCTION     0.38     0.70  1368.81     0  04:41        0.21
  J115                 JUNCTION     0.38     0.70  1368.75     0  04:41        0.21
  J116                 JUNCTION     0.38     0.70  1368.68     0  04:41        0.21
  J117                 JUNCTION     0.38     0.70  1368.58     0  04:42        0.21
  J118                 JUNCTION     0.39     0.70  1368.47     0  04:42        0.21
  J119                 JUNCTION     0.39     0.70  1368.40     0  04:42        0.21
  J120                 JUNCTION     0.41     0.69  1368.30     0  04:42        0.21
  FID2451              JUNCTION     0.44     0.67  1374.96     0  04:21        0.21
  J121                 JUNCTION     0.42     0.71  1371.45     0  04:45        0.22
  J122                 JUNCTION     0.42     0.71  1371.42     0  04:45        0.22
  FID3706              JUNCTION     0.57     0.96  1370.70     0  04:36        0.29
  FID2831              JUNCTION     0.57     0.96  1370.58     0  04:33        0.29
  FID2689              OUTFALL      0.24     0.43  1367.93     0  04:42        0.13
  
  
  *******************
  Node Inflow Summary
  *******************
  
  -------------------------------------------------------------------------------------------------
                                  Maximum  Maximum                  Lateral       Total        Flow
                                  Lateral    Total  Time of Max      Inflow      Inflow     Balance
                                   Inflow   Inflow   Occurrence      Volume      Volume       Error
  Node                 Type           CMS      CMS  days hr:min    10^6 ltr    10^6 ltr     Percent
  -------------------------------------------------------------------------------------------------
  FID1936              JUNCTION     0.159    0.159     0  04:05       0.208       0.208       0.082
  FID1955              JUNCTION     0.145    0.145     0  04:15         0.5       0.499       0.035
  FID1960              JUNCTION     0.067    0.067     0  04:15       0.228       0.228       0.075
  FID1965              JUNCTION     0.034    0.034     0  04:15       0.115       0.115       0.152
  FID1968              JUNCTION     0.010    0.010     0  04:15      0.0346      0.0346       0.506
  FID2239              JUNCTION     0.012    0.012     0  04:05      0.0361      0.0361       1.502
  FID2241              JUNCTION     0.000    0.011     0  04:05           0      0.0339       0.514
  FID2242              JUNCTION     0.011    0.011     0  04:05       0.034       0.034       0.531
  FID2244              JUNCTION     0.006    0.006     0  03:30      0.0132      0.0132       1.336
  FID2440              JUNCTION     0.000    1.102     0  04:20           0        14.7       0.289
  FID2442              JUNCTION     0.000    0.000     0  00:00           0           0       0.000 ltr
  FID2446              JUNCTION     0.118    0.118     0  04:05       0.147       0.147       0.129
  FID2447              JUNCTION     0.000    0.117     0  04:05           0       0.147       0.109
  FID2455              JUNCTION     0.083    1.137     0  04:20       0.263        14.7       0.285
  FID2711              JUNCTION     0.000    0.032     0  04:05           0      0.0436       0.476
  FID2719              JUNCTION     0.128    0.128     0  04:05       0.203       0.203       0.269
  FID2720              JUNCTION     0.033    0.033     0  04:05      0.0438      0.0438       0.469
  FID2824              JUNCTION     0.000    0.003     0  04:10    0.000601     0.00892       1.932
  FID2827              JUNCTION     0.000    0.003     0  04:10    0.000681     0.00847       1.782
  FID2828              JUNCTION     0.003    0.003     0  04:10     0.00803     0.00803       3.062
  FID2832              JUNCTION     0.000    0.161     0  04:10           0        0.52       0.048
  FID2833              JUNCTION     0.161    0.161     0  04:10        0.52        0.52       0.047
  FID2839              JUNCTION     0.340    0.340     0  04:10        1.29        1.29       0.032
  FID2873              JUNCTION     0.021    0.021     0  04:10      0.0683      0.0683       0.738
  FID2964              JUNCTION     0.061    0.061     0  04:10       0.225       0.225       0.081
  FID2965              JUNCTION     0.000    1.251     0  04:46           0        14.7       0.397
  FID4584              JUNCTION     0.000    0.002     0  03:38           0    0.000558      32.113
  FID5068              JUNCTION     0.006    0.006     0  03:30      0.0162      0.0162       1.084
  FID5072              JUNCTION     0.086    1.137     0  04:15       0.265        14.6       0.260
  FID5140              JUNCTION     0.081    0.081     0  03:30       0.341       0.341       0.033
  FID5435              JUNCTION     0.083    0.083     0  04:05       0.363       0.363       0.050
  FID5437              JUNCTION     0.002    0.002     0  03:30     0.00443     0.00443       4.096
  FID5503              JUNCTION     0.000    0.000     0  03:55    0.000643    0.000643      36.925
  FID5504              JUNCTION     0.064    0.064     0  04:10       0.206       0.206       0.121
  FID5527              JUNCTION     0.014    0.014     0  04:10      0.0428      0.0428       0.413
  FID5568              JUNCTION     0.003    1.107     0  04:37     0.00634        14.2       0.930
  FID5784              JUNCTION     0.000    1.182     0  04:31           0        14.5       0.125
  FID5785              JUNCTION     0.000    0.012     0  04:05           0      0.0356       0.089
  AFID6926             JUNCTION     0.066    0.066     0  04:15       0.212       0.212       0.084
  AFID7360             JUNCTION     0.000    1.253     0  04:48    0.000388        14.6       0.288
  AFID7363             JUNCTION     0.000    1.252     0  04:48           0        14.6       0.139
  AFID7376             JUNCTION     0.171    0.171     0  04:10       0.565       0.565       0.017
  AFID7377             JUNCTION     0.000    1.241     0  04:43           0        14.7       0.147
  AFID7705             JUNCTION     0.000    0.675     0  04:15           0        13.9       0.312
  AFID7706             JUNCTION     0.000    0.613     0  04:17           0        13.7       0.295
  AFID7792             JUNCTION     0.176    0.176     0  04:05       0.572       0.572       0.031
  AFID8223             JUNCTION     0.000    1.177     0  04:32           0        14.5       0.028
  J1                   JUNCTION     0.666    0.666     0  04:15          21          21       0.173
  FID4901              JUNCTION     0.000    0.475     0  04:20           0        13.7       0.277
  J9                   JUNCTION     0.000    0.665     0  04:15           0          21       0.355
  J11                  JUNCTION     0.000    0.664     0  04:15           0        20.9       0.638
  J12                  JUNCTION     0.006    0.668     0  04:21      0.0212        20.8       0.699
  J13                  JUNCTION    -0.220    0.677     0  04:35       -7.13        20.6      -0.210
  FID4902              JUNCTION     0.000    0.482     0  04:20           0        13.7       0.437
  J14                  JUNCTION     0.272    0.784     0  04:05       0.445          14       0.233
  J15                  JUNCTION     0.346    1.024     0  04:05       0.621        14.4       0.193
  J16                  JUNCTION     0.007    1.013     0  04:05     0.00862        14.4       0.194
  FID2449              JUNCTION     0.001    0.958     0  04:09     0.00124        14.2       1.539
  J17                  JUNCTION     0.124    1.231     0  04:20       0.389        15.1       0.143
  J19                  JUNCTION     0.017    1.165     0  04:15      0.0339        14.8       1.617
  FID5069              JUNCTION     0.000    1.134     0  04:15           0        14.6       0.230
  FID5139              JUNCTION     0.000    1.146     0  04:31           0        14.5       0.071
  J24                  JUNCTION     0.013    1.113     0  04:38      0.0386        14.1       0.103
  FID4984              JUNCTION     0.000    1.186     0  04:31           0        14.6       1.052
  FID2669              JUNCTION     0.000    1.511     0  04:39           0        16.1       0.092
  FID2712              JUNCTION     0.000    1.486     0  04:35           0        16.1       0.110
  FID2718              JUNCTION     0.000    1.477     0  04:35           0        16.1       0.077
  FID2838              JUNCTION     0.000    1.376     0  04:37           0        15.8       0.228
  FID2825              JUNCTION     0.000    1.269     0  04:50           0        14.6       0.386
  FID2823              JUNCTION     0.000    1.267     0  04:49           0        14.6       0.659
  FID5505              JUNCTION     0.000    1.264     0  04:48           0        14.7       0.178
  FID5436              JUNCTION     0.000    1.216     0  04:35           0        14.6       1.116
  FID5438              JUNCTION     0.000    1.180     0  04:38           0        14.3       0.192
  J49                  JUNCTION     0.000    0.483     0  04:20           0        13.6       0.707
  J50                  JUNCTION     0.000    0.488     0  04:34    0.000255        13.5       1.219
  J51                  JUNCTION     0.000    0.503     0  04:34           0        13.4       0.963
  J52                  JUNCTION     0.000    0.514     0  04:35           0        13.2       0.284
  J53                  JUNCTION     0.000    0.682     0  04:15           0        13.5       0.262
  J54                  JUNCTION     0.000    0.679     0  04:15           0        13.6       0.388
  J55                  JUNCTION     0.000    0.675     0  04:15           0        13.8       0.361
  J56                  JUNCTION     0.000    0.674     0  04:15           0        13.8       0.393
  J57                  JUNCTION     0.000    0.675     0  04:15           0        13.7       0.495
  J58                  JUNCTION     0.002    0.677     0  04:16     0.00623        13.7       0.531
  FID1935              JUNCTION     0.000    0.926     0  04:05           0        14.1       0.299
  J59                  JUNCTION     0.000    0.905     0  04:05           0        14.1       0.428
  J60                  JUNCTION     0.007    0.874     0  04:05     0.00868          14       0.668
  J61                  JUNCTION     0.000    0.821     0  04:06           0        13.9       0.450
  J62                  JUNCTION     0.000    0.811     0  04:08           0        13.9       0.205
  J63                  JUNCTION     0.000    0.813     0  04:09           0        13.9       0.207
  J64                  JUNCTION     0.000    1.003     0  04:06           0        14.4       0.205
  J65                  JUNCTION     0.022    1.002     0  04:05      0.0277        14.4       1.196
  J66                  JUNCTION     0.000    1.097     0  04:20           0        14.6       0.363
  J67                  JUNCTION     0.000    1.091     0  04:20           0        14.6       0.537
  J68                  JUNCTION     0.009    1.086     0  04:21      0.0214        14.5       0.572
  J69                  JUNCTION     0.000    1.224     0  04:20           0          15       0.571
  J70                  JUNCTION     0.005    1.202     0  04:19      0.0108          15       0.736
  J71                  JUNCTION     0.000    1.177     0  04:15           0        14.9       0.539
  J72                  JUNCTION     0.009    1.137     0  04:57      0.0291        14.6       1.733
  J73                  JUNCTION     0.000    1.130     0  04:15           0        14.6       0.532
  J74                  JUNCTION     0.000    1.117     0  04:16           0        14.5       0.779
  J75                  JUNCTION     0.006    1.109     0  04:33      0.0112        14.4       1.205
  J76                  JUNCTION     0.000    1.146     0  04:32           0        14.5       0.287
  J77                  JUNCTION     0.076    1.183     0  04:30       0.247        14.7       0.526
  J78                  JUNCTION     0.000    1.179     0  04:30           0        14.6       0.393
  J79                  JUNCTION     0.000    1.177     0  04:31           0        14.5       0.143
  J80                  JUNCTION     0.010    1.186     0  04:34      0.0285        14.4       0.899
  J81                  JUNCTION     0.002    1.213     0  04:39     0.00498        14.5       1.600
  J82                  JUNCTION     0.000    1.205     0  04:43           0        14.3       0.639
  J83                  JUNCTION     0.000    1.204     0  04:45           0        14.2       0.503
  J84                  JUNCTION     0.000    1.241     0  04:44           0        14.7       0.262
  J85                  JUNCTION     0.000    1.240     0  04:44           0        14.6       0.491
  J86                  JUNCTION     0.000    1.240     0  04:46           0        14.6       0.520
  J87                  JUNCTION     0.003    1.252     0  04:47     0.00768        14.7       0.222
  J88                  JUNCTION     0.000    1.254     0  04:49           0        14.6       0.325
  J89                  JUNCTION     0.000    1.265     0  04:48           0        14.7       0.494
  J90                  JUNCTION     0.000    1.376     0  04:37           0        15.7       0.169
  J91                  JUNCTION     0.000    1.376     0  04:37           0        15.7       0.232
  J92                  JUNCTION     0.000    1.376     0  04:38    3.14e-06        15.7       0.296
  J93                  JUNCTION     0.000    1.383     0  04:39           0        15.7       0.162
  J94                  JUNCTION     0.000    1.383     0  04:39    5.64e-06        15.6       0.171
  J95                  JUNCTION     0.000    1.384     0  04:40           0        15.6       0.067
  J96                  JUNCTION     0.000    1.442     0  04:32           0        16.1       0.246
  J97                  JUNCTION     0.000    1.440     0  04:33           0        16.1       0.209
  J98                  JUNCTION     0.000    1.439     0  04:33           0          16       0.184
  J99                  JUNCTION     0.000    1.438     0  04:34           0          16       0.156
  J100                 JUNCTION     0.000    1.437     0  04:34           0          16       0.131
  J101                 JUNCTION     0.000    1.436     0  04:36           0        15.9       0.154
  J102                 JUNCTION     0.000    1.436     0  04:37           0        15.9       0.121
  J103                 JUNCTION     0.000    1.476     0  04:35           0        16.1       0.091
  J104                 JUNCTION     0.000    1.484     0  04:35           0        16.1       0.118
  J105                 JUNCTION     0.000    1.482     0  04:36           0        16.1       0.146
  J106                 JUNCTION     0.000    1.481     0  04:36           0        16.1       0.164
  J107                 JUNCTION     0.000    1.480     0  04:37           0          16       0.168
  J108                 JUNCTION     0.000    1.479     0  04:37    1.99e-05          16       0.152
  J109                 JUNCTION     0.000    1.478     0  04:38           0          16       0.129
  J110                 JUNCTION     0.000    1.478     0  04:38           0          16       0.128
  J111                 JUNCTION     0.000    1.477     0  04:39    0.000174        15.9       0.091
  J112                 JUNCTION     0.000    1.511     0  04:39           0        16.1       0.129
  J113                 JUNCTION     0.000    1.510     0  04:40           0        16.1       0.127
  J114                 JUNCTION     0.000    1.510     0  04:40           0        16.1       0.106
  J115                 JUNCTION     0.000    1.509     0  04:40           0        16.1       0.080
  J116                 JUNCTION     0.000    1.509     0  04:41    5.44e-06        16.1       0.105
  J117                 JUNCTION     0.000    1.508     0  04:41           0          16       0.129
  J118                 JUNCTION     0.000    1.508     0  04:41           0          16       0.114
  J119                 JUNCTION     0.000    1.508     0  04:42           0          16       0.113
  J120                 JUNCTION     0.000    1.508     0  04:42           0          16       0.139
  FID2451              JUNCTION     0.000    0.962     0  04:24           0        14.2       0.287
  J121                 JUNCTION     0.005    1.204     0  04:47      0.0151        14.2       0.147
  J122                 JUNCTION     0.000    1.204     0  04:47    0.000684        14.1       0.127
  FID3706              JUNCTION     0.000    1.382     0  04:38           0        15.7       0.226
  FID2831              JUNCTION     0.000    1.443     0  04:31           0        16.1       0.152
  FID2689              OUTFALL      0.000    1.508     0  04:42           0          16       0.000
  
  
  **********************
  Node Surcharge Summary
  **********************
  
  Surcharging occurs when water rises above the top of the highest conduit.
  ---------------------------------------------------------------------
                                               Max. Height   Min. Depth
                                   Hours       Above Crown    Below Rim
  Node                 Type      Surcharged         Meters       Meters
  ---------------------------------------------------------------------
  J19                  JUNCTION        0.47          0.044        0.000
  J70                  JUNCTION        0.41          0.036        0.000
  J71                  JUNCTION        0.44          0.040        0.000
  
  
  *********************
  Node Flooding Summary
  *********************
  
  Flooding refers to all water that overflows a node, whether it ponds or not.
  --------------------------------------------------------------------------
                                                             Total   Maximum
                                 Maximum   Time of Max       Flood    Ponded
                        Hours       Rate    Occurrence      Volume     Depth
  Node                 Flooded       CMS   days hr:min    10^6 ltr    Meters
  --------------------------------------------------------------------------
  J19                     0.47     0.087      0  04:21       0.027     0.044
  J70                     0.41     0.032      0  04:21       0.013     0.036
  J71                     0.44     0.030      0  04:21       0.011     0.040
  
  
  ***********************
  Outfall Loading Summary
  ***********************
  
  -----------------------------------------------------------------------------------------------------
                         Flow       Avg       Max       Total         Total         Total         Total
                         Freq      Flow      Flow      Volume           TSS            TP           TDP
  Outfall Node           Pcnt       CMS       CMS    10^6 ltr            kg            kg            kg
  -----------------------------------------------------------------------------------------------------
  FID2689               72.46     0.909     1.508      15.957      7674.382         4.322         8.503
  -----------------------------------------------------------------------------------------------------
  System                72.46     0.909     1.508      15.957      7674.382         4.322         8.503
  
  
  ********************
  Link Flow Summary
  ********************
  
  -----------------------------------------------------------------------------
                                 Maximum  Time of Max   Maximum    Max/    Max/
                                  |Flow|   Occurrence   |Veloc|    Full    Full
  Link                 Type          CMS  days hr:min     m/sec    Flow   Depth
  -----------------------------------------------------------------------------
  FID1123              CONDUIT     0.021     0  04:10      0.86    0.29    0.64
  FID1139              CONDUIT     0.126     0  04:05      1.63    0.75    0.64
  FID1148              CONDUIT     0.161     0  04:10      1.07    0.33    0.28
  FID1149              CONDUIT     0.161     0  04:10      2.35    0.05    0.33
  FID3364              CONDUIT     0.170     0  04:10      0.86    0.12    0.38
  FID3671              CONDUIT     0.010     0  04:15      1.26    0.06    0.17
  FID3672              CONDUIT     0.034     0  04:15      1.78    0.20    0.31
  FID3762              CONDUIT     0.067     0  04:15      1.34    0.17    0.54
  FID3765              CONDUIT     0.145     0  04:15      2.12    0.34    0.62
  FID4112              CONDUIT     0.158     0  04:05      1.93    0.23    0.32
  FID4186              CONDUIT     0.011     0  04:05      1.07    0.04    0.14
  FID4187              CONDUIT     0.011     0  04:05      1.69    0.02    0.10
  FID4201              CONDUIT     0.117     0  04:05      1.37    0.99    0.70
  FID4202              CONDUIT     0.116     0  04:05      1.58    0.70    0.62
  FID4203              CONDUIT     0.000     0  00:00      0.00    0.00    0.26
  FID4299              CONDUIT     0.006     0  03:30      1.04    0.02    0.10
  FID4372              CONDUIT     0.081     0  03:30      0.60    0.01    0.35
  FID4498              CONDUIT     0.061     0  04:10      0.63    0.28    0.68
  FID4806              CONDUIT     0.083     0  04:05      2.19    0.02    0.11
  FID4807              CONDUIT     0.002     0  03:30      0.79    0.01    0.06
  FID4882              CONDUIT     0.000     0  03:55      0.01    0.00    0.52
  FID4884              CONDUIT     0.064     0  04:10      2.08    0.02    0.15
  FID4914              CONDUIT     0.014     0  04:10      0.21    0.04    0.57
  FID4915              CONDUIT     0.003     0  04:10      0.26    0.06    0.18
  FID4916              CONDUIT     0.003     0  04:10      0.30    0.06    0.14
  FID4917              CONDUIT     0.003     0  04:10      0.95    0.01    0.53
  FID5307              CONDUIT     0.012     0  04:05      0.53    0.17    0.25
  FID5308              CONDUIT     0.006     0  03:30      1.34    0.03    0.11
  FID5312              CONDUIT     0.012     0  04:05      0.67    0.06    0.16
  FID5865              CONDUIT     0.340     0  04:10      3.03    0.18    0.36
  C9                   CHANNEL     0.665     0  04:15      0.58    0.10    0.53
  C12                  CHANNEL     0.665     0  04:35      0.39    0.40    0.66
  C13                  CHANNEL     0.677     0  04:35      0.53    0.40    0.68
  C14                  CHANNEL     0.461     0  04:36      0.52    0.27    0.69
  C52                  CONDUIT     0.175     0  04:05      1.09    0.22    0.58
  C130                 CONDUIT     0.032     0  04:05      0.65    0.49    0.34
  C131                 CONDUIT     0.032     0  04:05      1.86    0.06    0.42
  C139                 CONDUIT     0.002     0  03:38      0.10    0.02    0.41
  C191                 CHANNEL     0.483     0  04:20      0.40    0.29    0.72
  C193                 CHANNEL     0.503     0  04:34      0.31    0.30    0.82
  C194                 CHANNEL     0.514     0  04:35      0.26    0.31    0.86
  C195                 CHANNEL     0.517     0  04:35      0.30    0.14    0.69
  C196                 CONDUIT     0.476     0  04:20      0.38    0.47    0.76
  C197                 CONDUIT     0.614     0  04:17      0.21    0.39    0.97
  C198                 CHANNEL     0.675     0  04:15      0.25    0.18    0.58
  C199                 CHANNEL     0.674     0  04:15      0.25    4.00    0.68
  C200                 CHANNEL     0.675     0  04:15      0.28    3.62    0.66
  C201                 CHANNEL     0.676     0  04:16      0.27    0.27    0.54
  C202                 CHANNEL     0.679     0  04:15      0.27    0.27    0.55
  C203                 CHANNEL     0.682     0  04:15      0.27    0.27    0.56
  C204                 CHANNEL     0.685     0  04:15      0.39    0.28    0.57
  C205                 CONDUIT     0.770     0  04:06      0.28    0.72    0.69
  C206                 CHANNEL     0.905     0  04:05      0.33    0.36    0.57
  C207                 CHANNEL     0.869     0  04:05      0.32    0.35    0.57
  C208                 CHANNEL     0.821     0  04:06      0.31    0.33    0.57
  C209                 CHANNEL     0.811     0  04:08      0.31    0.33    0.56
  C210                 CHANNEL     0.813     0  04:09      0.37    0.34    0.66
  C211                 CHANNEL     0.816     0  04:10      0.36    0.40    0.60
  C212                 CONDUIT     1.009     0  04:06      0.35    0.79    0.73
  C213                 CHANNEL     1.003     0  04:06      0.45    0.49    0.61
  C214                 CHANNEL     0.992     0  04:07      0.46    0.49    0.59
  C215                 CONDUIT     0.958     0  04:09      0.31    0.75    0.77
  C216                 CONDUIT     0.949     0  04:25      0.39    0.96    0.64
  C217                 CONDUIT     0.965     0  04:24      0.33    0.52    0.49
  C218                 CHANNEL     1.097     0  04:20      0.42    0.54    0.69
  C219                 CHANNEL     1.091     0  04:20      0.41    0.54    0.69
  C220                 CHANNEL     1.082     0  04:21      0.42    0.53    0.68
  C221                 CHANNEL     1.078     0  04:22      0.43    0.53    0.68
  C222                 CONDUIT     1.126     0  04:21      0.42    1.03    0.81
  C223                 CHANNEL     1.224     0  04:20      0.46    0.21    0.69
  C224                 CHANNEL     1.198     0  04:19      0.40    1.06    1.00
  C225                 CHANNEL     1.177     0  04:15      0.41    1.04    1.00
  C226                 CHANNEL     1.159     0  04:15      0.45    1.02    1.00
  C227                 CONDUIT     1.137     0  04:57      0.33    1.25    1.00
  C228                 CHANNEL     1.099     0  04:58      0.52    0.61    0.76
  C229                 CONDUIT     1.131     0  04:15      0.26    0.27    0.56
  C230                 CHANNEL     1.130     0  04:15      0.51    0.63    0.78
  C231                 CHANNEL     1.117     0  04:16      0.51    0.62    0.78
  C232                 CHANNEL     1.108     0  04:33      0.50    0.62    0.78
  C233                 CHANNEL     1.107     0  04:37      0.51    0.61    0.77
  C234                 CONDUIT     1.112     0  04:39      0.39    0.62    0.60
  C235                 CHANNEL     1.113     0  04:38      0.52    0.62    0.77
  C236                 CHANNEL     1.146     0  04:32      0.50    0.75    0.86
  C237                 CHANNEL     1.146     0  04:33      0.50    0.75    0.86
  C238                 CHANNEL     1.179     0  04:30      0.52    0.77    0.86
  C239                 CHANNEL     1.177     0  04:31      0.52    0.77    0.86
  C240                 CHANNEL     1.176     0  04:32      0.52    0.75    0.86
  C241                 CHANNEL     1.177     0  04:32      0.60    0.77    0.86
  C242                 CONDUIT     1.182     0  04:32      0.40    0.56    0.69
  C243                 CHANNEL     1.184     0  04:34      0.55    0.77    0.82
  C244                 CHANNEL     1.180     0  04:38      0.76    0.26    0.48
  C245                 CONDUIT     1.180     0  04:38      0.47    0.44    0.62
  C246                 CHANNEL     1.211     0  04:39      0.44    0.53    0.71
  C247                 CHANNEL     1.205     0  04:43      0.45    0.53    0.69
  C248                 CHANNEL     1.204     0  04:45      0.47    0.53    0.66
  C249                 CHANNEL     1.204     0  04:47      3.36    0.66    0.68
  C250                 CONDUIT     1.204     0  04:47      0.54    0.60    0.55
  C251                 CONDUIT     1.205     0  04:47      0.54    0.60    0.55
  C252                 CHANNEL     1.241     0  04:44      2.99    0.68    0.65
  C253                 CHANNEL     1.240     0  04:44      0.75    0.38    0.65
  C254                 CHANNEL     1.240     0  04:46      2.91    0.38    0.69
  C255                 CHANNEL     1.241     0  04:47      0.38    0.38    0.75
  C256                 CHANNEL     1.252     0  04:47      0.44    0.39    0.80
  C257                 CHANNEL     1.252     0  04:48      1.92    0.39    0.83
  C258                 CONDUIT     1.253     0  04:48      0.44    0.62    0.70
  C259                 CHANNEL     1.254     0  04:49      0.82    0.39    0.88
  C260                 CHANNEL     1.255     0  04:49      0.38    0.39    0.92
  C261                 CHANNEL     1.265     0  04:48      1.34    0.39    0.94
  C262                 CHANNEL     1.267     0  04:49      0.36    0.39    0.98
  C263                 CHANNEL     1.269     0  04:50      0.35    0.40    0.69
  C264                 CONDUIT     1.271     0  04:50      0.41    0.90    0.74
  C265                 CHANNEL     1.376     0  04:37      0.44    0.43    0.62
  C266                 CHANNEL     1.376     0  04:37      0.47    0.37    0.67
  C267                 CHANNEL     1.376     0  04:38      0.48    0.37    0.67
  C268                 CHANNEL     1.376     0  04:39      0.47    0.37    0.67
  C269                 CHANNEL     1.383     0  04:39      0.47    0.37    0.67
  C270                 CHANNEL     1.383     0  04:39      0.47    0.37    0.67
  C271                 CHANNEL     1.384     0  04:40      0.47    0.37    0.67
  C272                 CHANNEL     1.385     0  04:40      0.47    0.37    0.67
  C273                 CHANNEL     1.442     0  04:32      0.49    0.38    0.67
  C274                 CHANNEL     1.440     0  04:33      0.50    0.38    0.66
  C275                 CHANNEL     1.439     0  04:33      0.51    0.38    0.65
  C276                 CHANNEL     1.438     0  04:34      0.53    0.38    0.64
  C277                 CHANNEL     1.437     0  04:34      0.55    0.38    0.63
  C278                 CHANNEL     1.436     0  04:36      0.58    0.38    0.61
  C279                 CHANNEL     1.436     0  04:37      0.68    0.38    0.56
  C280                 CHANNEL     1.437     0  04:38      0.55    0.67    0.77
  C281                 CHANNEL     1.476     0  04:35      0.56    0.68    0.77
  C282                 CHANNEL     1.475     0  04:35      0.57    0.68    0.76
  C283                 CHANNEL     1.484     0  04:35      0.58    0.69    0.75
  C284                 CHANNEL     1.482     0  04:36      0.59    0.69    0.74
  C285                 CHANNEL     1.481     0  04:36      0.61    0.69    0.72
  C286                 CHANNEL     1.480     0  04:37      0.69    0.49    0.71
  C287                 CHANNEL     1.479     0  04:37      0.69    0.49    0.71
  C288                 CHANNEL     1.478     0  04:38      0.69    0.49    0.71
  C289                 CHANNEL     1.478     0  04:38      0.68    0.49    0.71
  C290                 CHANNEL     1.477     0  04:39      0.68    0.49    0.71
  C291                 CHANNEL     1.477     0  04:39      0.68    0.49    0.71
  C292                 CHANNEL     1.511     0  04:39      0.69    0.50    0.71
  C293                 CHANNEL     1.510     0  04:40      0.69    0.50    0.71
  C294                 CHANNEL     1.510     0  04:40      0.69    0.50    0.71
  C295                 CHANNEL     1.509     0  04:40      0.69    0.50    0.71
  C296                 CHANNEL     1.509     0  04:41      0.69    0.50    0.71
  C297                 CHANNEL     1.508     0  04:41      0.69    0.50    0.71
  C298                 CHANNEL     1.508     0  04:41      0.69    0.50    0.71
  C299                 CHANNEL     1.508     0  04:42      0.69    0.50    0.71
  C300                 CHANNEL     1.508     0  04:42      0.70    0.50    0.71
  C301                 CHANNEL     1.508     0  04:42      1.15    0.37    0.44
  C302                 CHANNEL     0.664     0  04:15      0.50    0.14    0.49
  C303                 CHANNEL     0.488     0  04:34      0.36    0.29    0.76
  C353                 CONDUIT     0.066     0  04:15      2.07    0.02    0.10
  
  
  ***************************
  Flow Classification Summary
  ***************************
  
  -------------------------------------------------------------------------------------
                      Adjusted    ---------- Fraction of Time in Flow Class ---------- 
                       /Actual         Up    Down  Sub   Sup   Up    Down  Norm  Inlet 
  Conduit               Length    Dry  Dry   Dry   Crit  Crit  Crit  Crit  Ltd   Ctrl  
  -------------------------------------------------------------------------------------
  FID1123                 1.00   0.16  0.00  0.00  0.44  0.00  0.00  0.40  0.31  0.00
  FID1139                 1.00   0.14  0.00  0.00  0.29  0.01  0.00  0.57  0.21  0.00
  FID1148                 1.00   0.11  0.00  0.00  0.44  0.00  0.00  0.45  0.00  0.00
  FID1149                 1.00   0.13  0.00  0.00  0.72  0.03  0.00  0.12  0.59  0.00
  FID3364                 1.00   0.12  0.00  0.00  0.83  0.00  0.00  0.06  0.65  0.00
  FID3671                 1.00   0.19  0.00  0.00  0.00  0.00  0.00  0.81  0.00  0.00
  FID3672                 1.00   0.16  0.00  0.00  0.00  0.00  0.00  0.84  0.00  0.00
  FID3762                 1.00   0.02  0.13  0.00  0.81  0.04  0.00  0.00  0.67  0.00
  FID3765                 1.00   0.01  0.13  0.00  0.70  0.15  0.00  0.00  0.67  0.00
  FID4112                 1.00   0.13  0.00  0.00  0.00  0.00  0.00  0.87  0.00  0.00
  FID4186                 1.00   0.20  0.00  0.00  0.05  0.42  0.00  0.34  0.00  0.00
  FID4187                 1.00   0.21  0.00  0.00  0.00  0.00  0.00  0.79  0.00  0.00
  FID4201                 1.00   0.14  0.00  0.00  0.60  0.00  0.00  0.26  0.35  0.00
  FID4202                 1.00   0.16  0.00  0.00  0.00  0.00  0.00  0.84  0.00  0.00
  FID4203                 1.00   0.14  0.86  0.00  0.00  0.00  0.00  0.00  0.00  0.00
  FID4299                 1.00   0.20  0.00  0.00  0.00  0.00  0.00  0.80  0.00  0.00
  FID4372                 1.00   0.08  0.05  0.00  0.86  0.00  0.00  0.00  0.68  0.00
  FID4498                 1.00   0.13  0.00  0.00  0.81  0.00  0.00  0.06  0.47  0.00
  FID4806                 1.00   0.14  0.00  0.00  0.00  0.00  0.00  0.86  0.00  0.00
  FID4807                 1.00   0.21  0.00  0.00  0.00  0.00  0.00  0.79  0.00  0.00
  FID4882                 1.00   0.23  0.48  0.00  0.29  0.00  0.00  0.00  0.59  0.00
  FID4884                 1.00   0.13  0.00  0.00  0.29  0.05  0.00  0.53  0.24  0.00
  FID4914                 1.00   0.14  0.03  0.00  0.83  0.00  0.00  0.00  0.65  0.00
  FID4915                 1.00   0.21  0.00  0.00  0.78  0.00  0.00  0.01  0.49  0.00
  FID4916                 1.00   0.22  0.00  0.00  0.61  0.00  0.00  0.18  0.00  0.00
  FID4917                 1.00   0.22  0.00  0.00  0.76  0.00  0.00  0.02  0.59  0.00
  FID5307                 1.00   0.19  0.00  0.00  0.72  0.00  0.00  0.09  0.27  0.00
  FID5308                 1.00   0.20  0.00  0.00  0.00  0.00  0.00  0.80  0.00  0.00
  FID5312                 1.00   0.21  0.00  0.00  0.00  0.00  0.00  0.79  0.00  0.00
  FID5865                 1.00   0.11  0.00  0.00  0.34  0.12  0.00  0.44  0.33  0.00
  C9                      1.00   0.00  0.00  0.00  1.00  0.00  0.00  0.00  0.00  0.00
  C12                     1.00   0.00  0.00  0.00  1.00  0.00  0.00  0.00  0.00  0.00
  C13                     1.00   0.00  0.00  0.00  1.00  0.00  0.00  0.00  0.00  0.00
  C14                     1.00   0.00  0.00  0.00  1.00  0.00  0.00  0.00  0.00  0.00
  C52                     1.00   0.04  0.10  0.00  0.86  0.00  0.00  0.00  0.67  0.00
  C130                    1.00   0.19  0.00  0.00  0.54  0.00  0.00  0.27  0.00  0.00
  C131                    1.00   0.21  0.00  0.00  0.56  0.01  0.00  0.22  0.43  0.00
  C139                    1.00   0.12  0.54  0.00  0.34  0.00  0.01  0.00  0.48  0.00
  C191                    1.00   0.00  0.00  0.00  1.00  0.00  0.00  0.00  0.00  0.00
  C193                    1.00   0.00  0.00  0.00  1.00  0.00  0.00  0.00  0.00  0.00
  C194                    1.00   0.01  0.00  0.00  0.99  0.00  0.00  0.00  0.00  0.00
  C195                    1.00   0.01  0.00  0.00  0.99  0.00  0.00  0.00  0.00  0.00
  C196                    1.00   0.00  0.00  0.00  1.00  0.00  0.00  0.00  0.00  0.00
  C197                    1.00   0.01  0.00  0.00  0.99  0.00  0.00  0.00  0.00  0.00
  C198                    1.00   0.01  0.00  0.00  0.99  0.00  0.00  0.00  0.00  0.00
  C199                    1.00   0.01  0.00  0.00  0.99  0.00  0.00  0.00  0.00  0.00
  C200                    1.00   0.01  0.00  0.00  0.99  0.00  0.00  0.00  0.00  0.00
  C201                    1.00   0.01  0.00  0.00  0.99  0.00  0.00  0.00  0.00  0.00
  C202                    1.00   0.01  0.00  0.00  0.99  0.00  0.00  0.00  0.00  0.00
  C203                    1.00   0.02  0.00  0.00  0.98  0.00  0.00  0.00  0.00  0.00
  C204                    1.00   0.02  0.00  0.00  0.98  0.00  0.00  0.00  0.00  0.00
  C205                    1.00   0.02  0.00  0.00  0.98  0.00  0.00  0.00  0.00  0.00
  C206                    1.00   0.02  0.00  0.00  0.98  0.00  0.00  0.00  0.00  0.00
  C207                    1.00   0.02  0.00  0.00  0.98  0.00  0.00  0.00  0.00  0.00
  C208                    1.00   0.02  0.00  0.00  0.98  0.00  0.00  0.00  0.00  0.00
  C209                    1.00   0.02  0.00  0.00  0.98  0.00  0.00  0.00  0.00  0.00
  C210                    1.00   0.03  0.00  0.00  0.97  0.00  0.00  0.00  0.00  0.00
  C211                    1.00   0.03  0.00  0.00  0.97  0.00  0.00  0.00  0.00  0.00
  C212                    1.00   0.03  0.00  0.00  0.97  0.00  0.00  0.00  0.00  0.00
  C213                    1.00   0.03  0.00  0.00  0.97  0.00  0.00  0.00  0.00  0.00
  C214                    1.00   0.03  0.00  0.00  0.97  0.00  0.00  0.00  0.00  0.00
  C215                    1.00   0.03  0.00  0.00  0.97  0.00  0.00  0.00  0.20  0.00
  C216                    1.00   0.03  0.00  0.00  0.97  0.00  0.00  0.00  0.00  0.00
  C217                    1.00   0.03  0.00  0.00  0.97  0.00  0.00  0.00  0.00  0.00
  C218                    1.00   0.03  0.00  0.00  0.97  0.00  0.00  0.00  0.00  0.00
  C219                    1.00   0.04  0.00  0.00  0.96  0.00  0.00  0.00  0.00  0.00
  C220                    1.00   0.04  0.00  0.00  0.96  0.00  0.00  0.00  0.00  0.00
  C221                    1.00   0.05  0.00  0.00  0.95  0.00  0.00  0.00  0.00  0.00
  C222                    1.00   0.05  0.00  0.00  0.95  0.00  0.00  0.00  0.00  0.00
  C223                    1.00   0.05  0.00  0.00  0.95  0.00  0.00  0.00  0.01  0.00
  C224                    1.00   0.05  0.00  0.00  0.95  0.00  0.00  0.00  0.00  0.00
  C225                    1.00   0.05  0.00  0.00  0.95  0.00  0.00  0.00  0.00  0.00
  C226                    1.00   0.05  0.00  0.00  0.95  0.00  0.00  0.00  0.00  0.00
  C227                    1.00   0.06  0.00  0.00  0.94  0.00  0.00  0.00  0.00  0.00
  C228                    1.00   0.06  0.00  0.00  0.94  0.00  0.00  0.00  0.00  0.00
  C229                    1.00   0.06  0.00  0.00  0.94  0.00  0.00  0.00  0.00  0.00
  C230                    1.00   0.07  0.00  0.00  0.93  0.00  0.00  0.00  0.00  0.00
  C231                    1.00   0.07  0.00  0.00  0.93  0.00  0.00  0.00  0.00  0.00
  C232                    1.00   0.07  0.00  0.00  0.93  0.00  0.00  0.00  0.00  0.00
  C233                    1.00   0.07  0.00  0.00  0.93  0.00  0.00  0.00  0.00  0.00
  C234                    1.00   0.08  0.00  0.00  0.92  0.00  0.00  0.00  0.00  0.00
  C235                    1.00   0.08  0.00  0.00  0.92  0.00  0.00  0.00  0.00  0.00
  C236                    1.00   0.08  0.00  0.00  0.92  0.00  0.00  0.00  0.00  0.00
  C237                    1.00   0.08  0.00  0.00  0.92  0.00  0.00  0.00  0.00  0.00
  C238                    1.00   0.08  0.00  0.00  0.92  0.00  0.00  0.00  0.00  0.00
  C239                    1.00   0.09  0.00  0.00  0.91  0.00  0.00  0.00  0.00  0.00
  C240                    1.00   0.09  0.00  0.00  0.91  0.00  0.00  0.00  0.00  0.00
  C241                    1.00   0.09  0.00  0.00  0.91  0.00  0.00  0.00  0.00  0.00
  C242                    1.00   0.09  0.00  0.00  0.91  0.00  0.00  0.00  0.00  0.00
  C243                    1.00   0.09  0.00  0.00  0.91  0.00  0.00  0.00  0.00  0.00
  C244                    1.00   0.09  0.00  0.00  0.90  0.00  0.00  0.00  0.00  0.00
  C245                    1.00   0.10  0.00  0.00  0.90  0.00  0.00  0.00  0.00  0.00
  C246                    1.00   0.10  0.01  0.00  0.89  0.00  0.00  0.00  0.09  0.00
  C247                    1.00   0.10  0.00  0.00  0.90  0.00  0.00  0.00  0.00  0.00
  C248                    1.00   0.12  0.00  0.00  0.88  0.00  0.00  0.00  0.00  0.00
  C249                    1.00   0.10  0.04  0.00  0.86  0.00  0.00  0.00  0.01  0.00
  C250                    1.00   0.10  0.00  0.00  0.90  0.00  0.00  0.00  0.00  0.00
  C251                    1.00   0.11  0.00  0.00  0.89  0.00  0.00  0.00  0.04  0.00
  C252                    1.00   0.12  0.00  0.00  0.88  0.01  0.00  0.00  0.00  0.00
  C253                    1.00   0.13  0.00  0.00  0.87  0.00  0.00  0.00  0.00  0.00
  C254                    1.00   0.17  0.00  0.00  0.83  0.00  0.00  0.00  0.00  0.00
  C255                    1.00   0.13  0.04  0.00  0.82  0.00  0.00  0.00  0.00  0.00
  C256                    1.00   0.10  0.03  0.00  0.86  0.01  0.00  0.00  0.02  0.00
  C257                    1.00   0.10  0.00  0.00  0.90  0.00  0.00  0.00  0.00  0.00
  C258                    1.00   0.10  0.03  0.00  0.87  0.00  0.00  0.00  0.02  0.00
  C259                    1.00   0.10  0.00  0.00  0.90  0.00  0.00  0.00  0.03  0.00
  C260                    1.00   0.13  0.03  0.00  0.85  0.00  0.00  0.00  0.00  0.00
  C261                    1.00   0.13  0.00  0.00  0.87  0.00  0.00  0.00  0.00  0.00
  C262                    1.00   0.13  0.01  0.00  0.86  0.00  0.00  0.00  0.05  0.00
  C263                    1.00   0.11  0.00  0.00  0.89  0.00  0.00  0.00  0.00  0.00
  C264                    1.00   0.11  0.00  0.00  0.89  0.00  0.00  0.00  0.01  0.00
  C265                    1.00   0.11  0.01  0.00  0.89  0.00  0.00  0.00  0.00  0.00
  C266                    1.00   0.12  0.00  0.00  0.88  0.00  0.00  0.00  0.00  0.00
  C267                    1.00   0.18  0.00  0.00  0.82  0.00  0.00  0.00  0.01  0.00
  C268                    1.00   0.16  0.05  0.00  0.79  0.00  0.00  0.00  0.01  0.00
  C269                    1.00   0.16  0.00  0.00  0.84  0.00  0.00  0.00  0.00  0.00
  C270                    1.00   0.17  0.02  0.00  0.81  0.00  0.00  0.00  0.02  0.00
  C271                    1.00   0.15  0.02  0.00  0.83  0.00  0.00  0.00  0.00  0.00
  C272                    1.00   0.13  0.02  0.00  0.85  0.00  0.00  0.00  0.00  0.00
  C273                    1.00   0.13  0.00  0.00  0.87  0.00  0.00  0.00  0.00  0.00
  C274                    1.00   0.14  0.00  0.00  0.86  0.00  0.00  0.00  0.00  0.00
  C275                    1.00   0.17  0.00  0.00  0.83  0.00  0.00  0.00  0.00  0.00
  C276                    1.00   0.21  0.00  0.00  0.79  0.00  0.00  0.00  0.00  0.00
  C277                    1.00   0.23  0.00  0.00  0.77  0.00  0.00  0.00  0.00  0.00
  C278                    1.00   0.23  0.00  0.00  0.77  0.00  0.00  0.00  0.00  0.00
  C279                    1.00   0.20  0.04  0.00  0.77  0.00  0.00  0.00  0.00  0.00
  C280                    1.00   0.14  0.06  0.00  0.80  0.00  0.00  0.00  0.01  0.00
  C281                    1.00   0.14  0.00  0.00  0.86  0.00  0.00  0.00  0.01  0.00
  C282                    1.00   0.14  0.00  0.00  0.86  0.00  0.00  0.00  0.01  0.00
  C283                    1.00   0.16  0.00  0.00  0.84  0.00  0.00  0.00  0.00  0.00
  C284                    1.00   0.19  0.00  0.00  0.81  0.00  0.00  0.00  0.00  0.00
  C285                    1.00   0.21  0.00  0.00  0.79  0.00  0.00  0.00  0.00  0.00
  C286                    1.00   0.23  0.00  0.00  0.77  0.00  0.00  0.00  0.00  0.00
  C287                    1.00   0.14  0.10  0.00  0.76  0.00  0.00  0.00  0.00  0.00
  C288                    1.00   0.14  0.00  0.00  0.86  0.00  0.00  0.00  0.00  0.00
  C289                    1.00   0.25  0.00  0.00  0.75  0.00  0.00  0.00  0.00  0.00
  C290                    1.00   0.12  0.13  0.00  0.74  0.00  0.00  0.00  0.00  0.00
  C291                    1.00   0.12  0.00  0.00  0.88  0.00  0.00  0.00  0.07  0.00
  C292                    1.00   0.16  0.00  0.00  0.84  0.00  0.00  0.00  0.01  0.00
  C293                    1.00   0.16  0.00  0.00  0.84  0.00  0.00  0.00  0.00  0.00
  C294                    1.00   0.19  0.00  0.00  0.81  0.00  0.00  0.00  0.00  0.00
  C295                    1.00   0.22  0.00  0.00  0.78  0.00  0.00  0.00  0.00  0.00
  C296                    1.00   0.19  0.04  0.00  0.76  0.00  0.00  0.00  0.00  0.00
  C297                    1.00   0.19  0.00  0.00  0.81  0.00  0.00  0.00  0.00  0.00
  C298                    1.00   0.26  0.00  0.00  0.74  0.00  0.00  0.00  0.00  0.00
  C299                    1.00   0.26  0.00  0.00  0.74  0.00  0.00  0.00  0.00  0.00
  C300                    1.00   0.27  0.00  0.00  0.73  0.00  0.00  0.00  0.00  0.00
  C301                    1.00   0.27  0.00  0.00  0.73  0.00  0.00  0.00  0.00  0.00
  C302                    1.00   0.00  0.00  0.00  1.00  0.00  0.00  0.00  0.00  0.00
  C303                    1.00   0.00  0.00  0.00  1.00  0.00  0.00  0.00  0.00  0.00
  C353                    1.00   0.16  0.00  0.00  0.00  0.00  0.00  0.84  0.00  0.00
  
  
  *************************
  Conduit Surcharge Summary
  *************************
  
  ----------------------------------------------------------------------------
                                                           Hours        Hours 
                         --------- Hours Full --------   Above Full   Capacity
  Conduit                Both Ends  Upstream  Dnstream   Normal Flow   Limited
  ----------------------------------------------------------------------------
  FID1123                     0.01      0.01      0.25      0.01         0.01
  FID4498                     0.01      0.01      2.25      0.01         0.01
  FID4882                     0.01      0.01      2.90      0.01         0.01
  FID4914                     0.01      0.01      3.21      0.01         0.01
  FID4917                     0.01      0.01      1.39      0.01         0.01
  C197                        0.01      0.01      0.30      0.01         0.01
  C199                        0.01      0.01      0.01      8.52         0.01
  C200                        0.01      0.01      0.01      8.48         0.01
  C222                        0.01      0.01      0.01      0.27         0.01
  C224                        0.35      0.38      0.41      0.36         0.10
  C225                        0.40      0.41      0.44      0.26         0.04
  C226                        0.44      0.44      0.47      0.10         0.01
  C227                        0.01      0.60      0.01      1.08         0.01
  C262                        0.01      0.01      1.10      0.01         0.01
  
  
  ***************************
  Link Pollutant Load Summary
  ***************************
  
  --------------------------------------------------------------
                                 TSS            TP           TDP
  Link                            kg            kg            kg
  --------------------------------------------------------------
  FID1123                     15.187         0.002         0.073
  FID1139                    176.968         0.046         0.353
  FID1148                    346.506         0.109         0.543
  FID1149                    346.108         0.109         0.544
  FID3364                    413.741         0.140         0.604
  FID3671                     17.582         0.009         0.015
  FID3672                    115.105         0.039         0.080
  FID3762                    280.563         0.129         0.194
  FID3765                    438.558         0.188         0.366
  FID4112                    170.177         0.060         0.154
  FID4186                     31.753         0.020         0.030
  FID4187                     30.901         0.020         0.029
  FID4201                    121.877         0.046         0.086
  FID4202                    119.280         0.044         0.085
  FID4203                      0.000         0.000         0.000
  FID4299                     19.558         0.009         0.008
  FID4372                    383.149         0.425         0.342
  FID4498                    382.864         0.051         0.075
  FID4806                   1134.580         0.310         0.883
  FID4807                      0.000         0.001         0.000
  FID4882                      0.003         0.000         0.000
  FID4884                     78.468         0.015         0.309
  FID4914                     70.395         0.038         0.039
  FID4915                      1.968         0.003         0.003
  FID4916                      0.147         0.001         0.003
  FID4917                      0.051         0.001         0.002
  FID5307                     39.526         0.013         0.063
  FID5308                     23.043         0.010         0.006
  FID5312                     37.161         0.012         0.061
  FID5865                    330.031         1.019         0.361
  C9                         204.817         1.079         1.347
  C12                        203.817         1.061         1.324
  C13                        272.861         1.071         1.375
  C14                        178.461         0.705         0.909
  C52                        583.926         0.226         0.565
  C130                        42.248         0.011         0.137
  C131                        41.212         0.011         0.135
  C139                         0.725         0.001         0.003
  C191                       311.303         0.745         0.994
  C193                       313.398         0.724         0.968
  C194                       308.673         0.718         0.963
  C195                       307.999         0.716         0.961
  C196                       293.800         0.740         0.984
  C197                       747.042         0.900         1.324
  C198                      1027.416         1.027         1.514
  C199                      1032.510         1.025         1.511
  C200                      1030.176         1.021         1.506
  C201                      1040.543         1.017         1.502
  C202                      1056.202         1.018         1.508
  C203                      1056.134         1.014         1.504
  C204                      1049.647         1.010         1.499
  C205                      1364.489         1.102         1.884
  C206                      1533.332         1.158         2.034
  C207                      1543.296         1.158         2.037
  C208                      1568.742         1.168         2.055
  C209                      1552.637         1.159         2.042
  C210                      1553.638         1.157         2.040
  C211                      1551.325         1.155         2.036
  C212                      2037.842         1.348         2.479
  C213                      2049.739         1.351         2.478
  C214                      2052.071         1.350         2.479
  C215                      2210.143         1.409         2.584
  C216                      2121.236         1.372         2.527
  C217                      2243.134         1.414         2.610
  C218                      2824.249         1.637         3.170
  C219                      2833.956         1.637         3.172
  C220                      2840.960         1.635         3.171
  C221                      2892.169         1.662         3.214
  C222                      3130.708         1.745         3.435
  C223                      3471.311         1.848         3.846
  C224                      3513.604         1.857         3.870
  C225                      3517.047         1.853         3.894
  C226                      3515.384         1.848         3.888
  C227                      3638.891         1.880         3.954
  C228                      3593.480         1.876         3.937
  C229                      3967.811         2.044         4.354
  C230                      3983.794         2.051         4.358
  C231                      4026.284         2.059         4.379
  C232                      4003.663         2.045         4.356
  C233                      4093.201         2.071         4.406
  C234                      4032.252         2.047         4.357
  C235                      4072.559         2.060         4.374
  C236                      4453.499         2.483         4.714
  C237                      4476.914         2.490         4.721
  C238                      4941.288         2.667         5.136
  C239                      4926.128         2.657         5.123
  C240                      4914.697         2.651         5.115
  C241                      4937.127         2.660         5.121
  C242                      4982.151         2.674         5.184
  C243                      5093.745         2.718         5.244
  C244                      5065.130         2.708         5.241
  C245                      5067.645         2.708         5.239
  C246                      6319.759         3.051         6.174
  C247                      6298.365         3.048         6.153
  C248                      6329.763         3.053         6.159
  C249                      6287.401         3.035         6.134
  C250                      6306.277         3.041         6.134
  C251                      6308.768         3.041         6.133
  C252                      6719.159         3.177         6.731
  C253                      6744.303         3.182         6.741
  C254                      6763.408         3.183         6.745
  C255                      6760.337         3.177         6.736
  C256                      7036.614         3.221         6.799
  C257                      7011.879         3.225         6.796
  C258                      7016.858         3.224         6.794
  C259                      7067.743         3.229         6.807
  C260                      7012.936         3.221         6.791
  C261                      7106.206         3.235         7.101
  C262                      7201.251         3.241         7.141
  C263                      7186.936         3.257         7.160
  C264                      7461.815         3.343         7.352
  C265                      7448.644         4.218         7.381
  C266                      7487.472         4.254         7.398
  C267                      7441.328         4.232         7.383
  C268                      7468.317         4.260         7.395
  C269                      7381.893         4.183         7.403
  C270                      7501.454         4.221         7.447
  C271                      7552.977         4.187         7.454
  C272                      7572.022         4.184         7.468
  C273                      7796.554         4.320         7.989
  C274                      7755.800         4.307         7.956
  C275                      7695.014         4.296         7.924
  C276                      7650.164         4.292         7.901
  C277                      7608.926         4.281         7.875
  C278                      7593.006         4.278         7.864
  C279                      7583.696         4.279         7.857
  C280                      7637.387         4.269         7.864
  C281                      7711.646         4.306         8.179
  C282                      7733.393         4.315         8.193
  C283                      7769.984         4.324         8.321
  C284                      7770.638         4.325         8.322
  C285                      7767.164         4.330         8.327
  C286                      7734.381         4.334         8.310
  C287                      7705.023         4.334         8.289
  C288                      7674.487         4.326         8.263
  C289                      7660.164         4.323         8.250
  C290                      7653.644         4.321         8.244
  C291                      7653.241         4.305         8.230
  C292                      7770.741         4.349         8.626
  C293                      7755.235         4.343         8.605
  C294                      7759.339         4.345         8.603
  C295                      7730.733         4.331         8.562
  C296                      7734.164         4.333         8.564
  C297                      7737.859         4.341         8.572
  C298                      7723.970         4.342         8.562
  C299                      7697.155         4.332         8.532
  C300                      7712.327         4.342         8.550
  C301                      7674.382         4.322         8.503
  C302                       204.207         1.073         1.341
  C303                       312.865         0.737         0.983
  C353                       122.949         0.027         0.375
  

  Analysis begun on:  Tue Oct 10 20:14:58 2017
  Analysis ended on:  Tue Oct 10 20:15:41 2017
  Total elapsed time: 00:00:43