
  EPA STORM WATER MANAGEMENT MODEL - VERSION 5.1 (Build 5.1.010)
  --------------------------------------------------------------

  WARNING 04: minimum elevation drop used for Conduit C199
  WARNING 04: minimum elevation drop used for Conduit C200
  WARNING 02: maximum depth increased for Node FID1955
  WARNING 02: maximum depth increased for Node FID1960
  WARNING 02: maximum depth increased for Node FID1965
  WARNING 02: maximum depth increased for Node FID1968
  WARNING 02: maximum depth increased for Node FID2244
  WARNING 02: maximum depth increased for Node FID2442
  WARNING 02: maximum depth increased for Node FID2446
  WARNING 02: maximum depth increased for Node FID5504
  WARNING 02: maximum depth increased for Node FID5527
  WARNING 02: maximum depth increased for Node AFID6926
  WARNING 02: maximum depth increased for Node AFID7376
  
  *********************************************************
  NOTE: The summary statistics displayed in this report are
  based on results found at every computational time step,  
  not just on results from each reporting time step.
  *********************************************************
  
  ****************
  Analysis Options
  ****************
  Flow Units ............... CMS
  Process Models:
    Rainfall/Runoff ........ YES
    RDII ................... NO
    Snowmelt ............... NO
    Groundwater ............ NO
    Flow Routing ........... YES
    Ponding Allowed ........ YES
    Water Quality .......... YES
  Infiltration Method ...... GREEN_AMPT
  Flow Routing Method ...... DYNWAVE
  Starting Date ............ MAY-06-2016 15:00:00
  Ending Date .............. MAY-07-2016 00:00:00
  Antecedent Dry Days ...... 0.0
  Report Time Step ......... 00:01:00
  Wet Time Step ............ 00:01:00
  Dry Time Step ............ 01:00:00
  Routing Time Step ........ 5.00 sec
  Variable Time Step ....... YES
  Maximum Trials ........... 8
  Number of Threads ........ 3
  Head Tolerance ........... 0.001500 m
  
  
  **************************        Volume         Depth
  Runoff Quantity Continuity     hectare-m            mm
  **************************     ---------       -------
  Total Precipitation ......         2.583         6.709
  Evaporation Loss .........         0.000         0.000
  Infiltration Loss ........         1.319         3.425
  Surface Runoff ...........         0.941         2.443
  Final Storage ............         0.326         0.846
  Continuity Error (%) .....        -0.069
  
  
  **************************           TSS            TP           TDP
  Runoff Quality Continuity             kg            kg            kg
  **************************    ----------    ----------    ----------
  Initial Buildup ..........         0.000         0.000         0.000
  Surface Buildup ..........     13853.804         7.179         9.989
  Wet Deposition ...........         0.000         0.000         0.000
  Sweeping Removal .........         0.000         0.000         0.000
  Infiltration Loss ........         0.000         0.000         0.000
  BMP Removal ..............         0.729         0.000         0.000
  Surface Runoff ...........      7289.659         3.920         4.954
  Remaining Buildup ........      6563.416         3.259         5.034
  Continuity Error (%) .....         0.000         0.000         0.000
  
  
  **************************        Volume        Volume
  Flow Routing Continuity        hectare-m      10^6 ltr
  **************************     ---------     ---------
  Dry Weather Inflow .......         0.000         0.000
  Wet Weather Inflow .......         0.940         9.405
  Groundwater Inflow .......         0.000         0.000
  RDII Inflow ..............         0.000         0.000
  External Inflow ..........         1.384        13.843
  External Outflow .........         1.795        17.949
  Flooding Loss ............         0.000         0.000
  Evaporation Loss .........         0.000         0.000
  Exfiltration Loss ........         0.000         0.000
  Initial Stored Volume ....         0.000         0.000
  Final Stored Volume ......         0.535         5.354
  Continuity Error (%) .....        -0.238
  
  
  **************************           TSS            TP           TDP
  Quality Routing Continuity            kg            kg            kg
  **************************    ----------    ----------    ----------
  Dry Weather Inflow .......         0.000         0.000         0.000
  Wet Weather Inflow .......      7270.636         3.916         4.946
  Groundwater Inflow .......         0.000         0.000         0.000
  RDII Inflow ..............         0.000         0.000         0.000
  External Inflow ..........       137.985         1.039         1.284
  External Outflow .........      7295.983         4.599         5.765
  Flooding Loss ............         0.000         0.000         0.000
  Exfiltration Loss ........         0.000         0.000         0.000
  Mass Reacted .............         0.000         0.000         0.000
  Initial Stored Mass ......         0.000         0.000         0.000
  Final Stored Mass ........        39.189         0.351         0.495
  Continuity Error (%) .....         0.991         0.072        -0.502
  
  
  *************************
  Highest Continuity Errors
  *************************
  Node FID2824 (1.78%)
  Node J72 (1.34%)
  Node FID2449 (1.24%)
  Node J19 (1.21%)
  Node J81 (1.20%)
  
  
  ***************************
  Time-Step Critical Elements
  ***************************
  Link C241 (92.61%)
  Link C14 (6.56%)
  
  
  ********************************
  Highest Flow Instability Indexes
  ********************************
  All links are stable.
  
  
  *************************
  Routing Time Step Summary
  *************************
  Minimum Time Step           :     0.38 sec
  Average Time Step           :     0.94 sec
  Maximum Time Step           :     5.00 sec
  Percent in Steady State     :     0.00
  Average Iterations per Step :     2.00
  Percent Not Converging      :     0.03
  
  
  ***************************
  Subcatchment Runoff Summary
  ***************************
  
  --------------------------------------------------------------------------------------------------------
                            Total      Total      Total      Total      Total       Total     Peak  Runoff
                           Precip      Runon       Evap      Infil     Runoff      Runoff   Runoff   Coeff
  Subcatchment                 mm         mm         mm         mm         mm    10^6 ltr      CMS
  --------------------------------------------------------------------------------------------------------
  S0                         5.84       0.00       0.00       5.07       0.56        0.00     0.00   0.097
  S1                         5.84       0.00       0.00       2.66       2.31        0.23     0.07   0.395
  S2                         6.35       0.00       0.00       2.03       3.22        0.56     0.19   0.508
  S3                         5.84       0.00       0.00       3.86       1.45        0.05     0.04   0.248
  S4                         5.84       0.00       0.00       2.86       2.18        0.22     0.18   0.373
  S6                         6.35       0.00       0.00       1.14       3.89        0.07     0.02   0.612
  S7                         6.35       0.00       0.00       1.50       3.25        1.27     0.39   0.511
  S8                         6.35       0.00       0.00       1.15       3.90        0.00     0.00   0.614
  S9                         6.35       0.00       0.00       1.85       3.37        0.00     0.00   0.531
  S10                        6.35       0.00       0.00       1.96       3.29        0.01     0.00   0.518
  S11                        6.35       0.00       0.00       5.02       1.00        0.00     0.00   0.157
  S12                        6.35       0.00       0.00       2.19       3.12        0.00     0.00   0.492
  S13                        6.35       0.00       0.00       2.44       2.92        0.22     0.07   0.460
  S14                        6.35       0.00       0.00       4.49       1.40        0.01     0.00   0.220
  S16                        6.35       0.00       0.00       2.46       1.08        0.06     0.01   0.171
  S17                        6.35       0.00       0.00       2.14       3.15        0.60     0.20   0.495
  S18                        6.35       0.00       0.00       1.49       3.64        0.00     0.00   0.574
  S19                        6.35       0.00       0.00       3.52       2.12        0.05     0.02   0.333
  S20                        6.35       0.00       0.00       2.29       3.04        0.02     0.01   0.479
  S21                        6.35       0.00       0.00       4.57       1.72        0.92     0.21   0.271
  S22                        6.35       0.00       0.00       1.79       3.42        0.00     0.00   0.538
  S23                        6.35       0.00       0.00       3.88       1.85        0.03     0.01   0.292
  S24                        6.35       0.00       0.00       3.67       2.01        0.04     0.01   0.316
  S25                        6.35       0.00       0.00       2.50       2.88        0.04     0.01   0.453
  S27                        6.35       0.00       0.00       2.85       2.63        0.01     0.01   0.414
  S28                        5.84       0.00       0.00       5.83       0.01        0.00     0.00   0.001
  S29                        5.84       0.00       0.00       5.80       0.03        0.00     0.00   0.005
  S30                        6.35       0.00       0.00       6.33       0.02        0.00     0.00   0.003
  S31                        6.35       0.00       0.00       6.34       0.01        0.00     0.00   0.001
  S32                        6.35       0.00       0.00       4.71       1.23        0.01     0.00   0.194
  S33                        6.35       0.00       0.00       1.62       3.55        0.04     0.02   0.558
  S34                        6.35       0.00       0.00       4.29       1.03        0.36     0.12   0.162
  S35                        6.35       0.00       0.00       3.65       2.03        0.01     0.00   0.319
  S36                        6.35       0.00       0.00       5.07       0.96        0.01     0.01   0.151
  S37                        6.35       0.00       0.00       1.93       3.31        0.02     0.01   0.521
  S39                        6.35       0.00       0.00       3.80       1.91        0.28     0.10   0.301
  S40                        6.35       0.00       0.00       4.45       1.42        0.03     0.01   0.223
  S41                        6.35       0.00       0.00       2.27       3.05        0.42     0.14   0.481
  S42                        6.35       0.00       0.00       2.66       2.76        0.28     0.10   0.435
  S43                        6.35       0.00       0.00       4.77       1.18        0.02     0.01   0.187
  S44                        6.35       0.00       0.00       2.73       2.71        0.61     0.21   0.426
  S45                        8.13       0.00       0.00       4.60       2.89        0.00     0.00   0.356
  S47                        8.13       0.00       0.00       3.54       3.73        0.16     0.14   0.459
  S48                        8.13       0.00       0.00       4.19       3.24        0.01     0.01   0.399
  S49                        8.13       0.00       0.00       3.70       3.57        0.67     0.49   0.439
  S51                        8.13       0.00       0.00       6.99       0.93        0.01     0.01   0.115
  S52                        8.13       0.00       0.00       4.01       3.34        0.22     0.20   0.412
  S53                        8.13       0.00       0.00       3.86       3.44        0.48     0.38   0.423
  S54                        8.13       0.00       0.00       4.90       2.59        0.24     0.07   0.319
  S55                        8.13       0.00       0.00       4.02       3.29        0.54     0.16   0.405
  S56                        8.13       0.00       0.00       5.92       1.78        0.00     0.00   0.220
  S57                        8.13       0.00       0.00       3.50       3.72        0.04     0.01   0.458
  S58                        8.13       0.00       0.00       4.35       3.03        0.12     0.04   0.373
  S59                        8.13       0.00       0.00       7.01       0.90        0.02     0.01   0.110
  S60                        8.13       0.00       0.00       5.81       1.86        0.05     0.01   0.228
  S61                        8.13       0.00       0.00       7.17       0.77        0.01     0.00   0.095
  S62                        8.13       0.00       0.00       6.68       1.18        0.03     0.03   0.145
  S63                        6.35       0.00       0.00       5.35       0.75        0.01     0.01   0.118
  S64                        6.35       0.00       0.00       2.92       2.58        0.04     0.02   0.406
  S65                        6.35       0.00       0.00       4.26       1.56        0.26     0.09   0.246
  
  
  ****************************
  Subcatchment Washoff Summary
  ****************************
  
  --------------------------------------------------------------
                                 TSS            TP           TDP
  Subcatchment                    kg            kg            kg
  --------------------------------------------------------------
  S0                           0.377         0.000         0.000
  S1                         169.314         0.010         0.129
  S2                         245.231         0.076         0.226
  S3                          21.317         0.010         0.027
  S4                         139.129         0.031         0.128
  S6                          23.037         0.001         0.017
  S7                         206.542         1.188         0.516
  S8                           0.264         0.000         0.000
  S9                           0.305         0.000         0.001
  S10                          3.194         0.003         0.005
  S11                          0.311         0.000         0.001
  S12                          0.175         0.000         0.000
  S13                         86.860         0.009         0.072
  S14                          8.759         0.006         0.010
  S16                         58.658         0.061         0.044
  S17                        293.859         0.093         0.266
  S18                          0.317         0.000         0.001
  S19                         45.891         0.022         0.040
  S20                          7.167         0.007         0.010
  S21                       1958.668         0.940         0.372
  S22                          2.088         0.002         0.003
  S23                         30.198         0.016         0.023
  S24                         23.350         0.009         0.025
  S25                         26.341         0.012         0.020
  S27                          7.884         0.008         0.011
  S28                          0.000         0.000         0.000
  S29                          0.000         0.000         0.000
  S30                          0.000         0.000         0.000
  S31                          0.000         0.000         0.000
  S32                          9.375         0.002         0.006
  S33                         18.181         0.011         0.021
  S34                       1036.509         0.263         0.376
  S35                          5.934         0.004         0.007
  S36                         25.199         0.003         0.016
  S37                         10.061         0.007         0.010
  S39                        246.406         0.100         0.219
  S40                         44.233         0.013         0.034
  S41                        184.628         0.074         0.191
  S42                        183.751         0.062         0.168
  S43                         41.196         0.007         0.028
  S44                        402.969         0.145         0.364
  S45                          0.599         0.001         0.001
  S47                         56.537         0.036         0.062
  S48                          3.721         0.004         0.005
  S49                        308.640         0.132         0.283
  S51                         20.710         0.009         0.014
  S52                        102.988         0.045         0.100
  S53                        194.002         0.069         0.189
  S54                        178.680         0.092         0.162
  S55                        300.210         0.123         0.262
  S56                          0.083         0.000         0.000
  S57                         20.767         0.006         0.014
  S58                         64.077         0.028         0.065
  S59                         34.899         0.012         0.028
  S60                         47.400         0.023         0.037
  S61                         16.062         0.003         0.010
  S62                         45.469         0.024         0.033
  S63                         23.471         0.001         0.013
  S64                         25.656         0.014         0.019
  S65                        278.007         0.101         0.266
  --------------------------------------------------------------
  System                    7289.659         3.920         4.954
  
  
  ******************
  Node Depth Summary
  ******************
  
  ---------------------------------------------------------------------------------
                                 Average  Maximum  Maximum  Time of Max    Reported
                                   Depth    Depth      HGL   Occurrence   Max Depth
  Node                 Type       Meters   Meters   Meters  days hr:min      Meters
  ---------------------------------------------------------------------------------
  FID1936              JUNCTION     0.15     0.40  1376.70     0  04:05        0.12
  FID1955              JUNCTION     0.16     0.33  1376.25     0  04:15        0.10
  FID1960              JUNCTION     0.15     0.27  1376.13     0  04:15        0.08
  FID1965              JUNCTION     0.15     0.26  1376.56     0  04:15        0.08
  FID1968              JUNCTION     0.13     0.21  1376.61     0  04:14        0.06
  FID2239              JUNCTION     0.15     0.29  1374.80     0  03:30        0.09
  FID2241              JUNCTION     0.13     0.20  1373.33     0  04:05        0.06
  FID2242              JUNCTION     0.13     0.22  1374.26     0  04:05        0.07
  FID2244              JUNCTION     0.13     0.19  1374.55     0  03:30        0.06
  FID2440              JUNCTION     0.38     0.62  1374.86     0  04:10        0.19
  FID2442              JUNCTION     0.00     0.00  1375.27     0  00:00        0.00
  FID2446              JUNCTION     0.16     0.56  1376.36     0  04:05        0.17
  FID2447              JUNCTION     0.15     0.46  1376.16     0  04:05        0.14
  FID2455              JUNCTION     0.29     0.57  1374.56     0  04:20        0.17
  FID2711              JUNCTION     0.13     0.25  1370.43     0  03:50        0.07
  FID2719              JUNCTION     0.17     0.90  1371.00     0  04:04        0.23
  FID2720              JUNCTION     0.15     0.39  1370.59     0  04:05        0.12
  FID2824              JUNCTION     0.12     0.18  1371.46     0  03:55        0.06
  FID2827              JUNCTION     0.13     0.23  1371.53     0  03:55        0.07
  FID2828              JUNCTION     0.13     0.23  1371.55     0  03:55        0.07
  FID2832              JUNCTION     0.16     0.31  1370.91     0  04:10        0.09
  FID2833              JUNCTION     0.21     0.48  1371.10     0  04:10        0.15
  FID2839              JUNCTION     0.18     0.33  1371.53     0  04:20        0.10
  FID2873              JUNCTION     0.16     0.29  1370.99     0  03:55        0.09
  FID2964              JUNCTION     0.16     0.31  1371.09     0  04:36        0.09
  FID2965              JUNCTION     0.41     0.83  1371.09     0  04:36        0.25
  FID4584              JUNCTION     0.13     0.29  1371.63     0  04:10        0.09
  FID5068              JUNCTION     0.13     0.20  1375.58     0  03:30        0.06
  FID5072              JUNCTION     0.47     0.79  1374.08     0  04:20        0.24
  FID5140              JUNCTION     0.15     0.27  1373.49     0  04:05        0.08
  FID5435              JUNCTION     0.16     0.26  1373.01     0  04:05        0.08
  FID5437              JUNCTION     0.12     0.18  1373.13     0  03:30        0.05
  FID5503              JUNCTION     0.12     0.16  1371.49     0  03:51        0.05
  FID5504              JUNCTION     0.15     0.25  1371.61     0  04:10        0.08
  FID5527              JUNCTION     0.14     0.21  1372.71     0  04:10        0.07
  FID5568              JUNCTION     0.45     0.80  1373.19     0  04:29        0.24
  FID5784              JUNCTION     0.46     0.81  1372.80     0  04:31        0.25
  FID5785              JUNCTION     0.14     0.24  1374.67     0  04:05        0.07
  AFID6926             JUNCTION     0.15     0.25  1370.05     0  04:15        0.08
  AFID7360             JUNCTION     0.46     0.91  1371.04     0  04:36        0.28
  AFID7363             JUNCTION     0.45     0.89  1371.06     0  04:36        0.27
  AFID7376             JUNCTION     0.18     0.40  1371.63     0  04:10        0.12
  AFID7377             JUNCTION     0.38     0.71  1371.39     0  04:33        0.22
  AFID7705             JUNCTION     0.48     0.59  1375.56     0  04:15        0.18
  AFID7706             JUNCTION     0.54     0.64  1375.56     0  04:15        0.20
  AFID7792             JUNCTION     0.17     0.39  1375.19     0  04:05        0.12
  AFID8223             JUNCTION     0.46     0.81  1372.81     0  04:31        0.25
  J1                   JUNCTION     0.70     0.73  1375.72     0  04:15        0.22
  FID4901              JUNCTION     0.43     0.52  1375.59     0  04:15        0.16
  J9                   JUNCTION     0.59     0.62  1375.71     0  04:15        0.19
  J11                  JUNCTION     0.44     0.47  1375.68     0  04:16        0.14
  J12                  JUNCTION     0.43     0.50  1375.62     0  04:15        0.15
  J13                  JUNCTION     0.43     0.52  1375.59     0  04:15        0.16
  FID4902              JUNCTION     0.45     0.54  1375.59     0  04:15        0.16
  J14                  JUNCTION     0.36     0.52  1375.44     0  04:05        0.16
  J15                  JUNCTION     0.34     0.55  1375.21     0  04:06        0.17
  J16                  JUNCTION     0.35     0.55  1375.19     0  04:06        0.17
  FID2449              JUNCTION     0.38     0.62  1374.94     0  04:10        0.19
  J17                  JUNCTION     0.28     0.56  1374.54     0  04:20        0.17
  J19                  JUNCTION     0.41     0.74  1374.29     0  04:22        0.23
  FID5069              JUNCTION     0.49     0.82  1374.08     0  04:21        0.25
  FID5139              JUNCTION     0.46     0.81  1373.16     0  04:29        0.25
  J24                  JUNCTION     0.46     0.81  1373.17     0  04:29        0.25
  FID4984              JUNCTION     0.48     0.83  1372.79     0  04:31        0.25
  FID2669              JUNCTION     0.35     0.70  1369.14     0  04:38        0.21
  FID2712              JUNCTION     0.37     0.75  1369.94     0  04:36        0.23
  FID2718              JUNCTION     0.37     0.76  1370.00     0  04:35        0.23
  FID2838              JUNCTION     0.54     0.99  1370.93     0  04:34        0.30
  FID2825              JUNCTION     0.59     1.06  1370.97     0  04:35        0.32
  FID2823              JUNCTION     0.64     1.12  1370.99     0  04:35        0.34
  FID5505              JUNCTION     0.53     0.99  1371.02     0  04:35        0.30
  FID5436              JUNCTION     0.49     0.83  1372.15     0  04:31        0.25
  FID5438              JUNCTION     0.42     0.76  1372.19     0  04:32        0.23
  J49                  JUNCTION     0.47     0.56  1375.58     0  04:15        0.17
  J50                  JUNCTION     0.51     0.61  1375.57     0  04:15        0.18
  J51                  JUNCTION     0.56     0.67  1375.56     0  04:15        0.20
  J52                  JUNCTION     0.57     0.68  1375.56     0  04:15        0.21
  J53                  JUNCTION     0.36     0.52  1375.44     0  04:05        0.16
  J54                  JUNCTION     0.37     0.50  1375.45     0  04:05        0.15
  J55                  JUNCTION     0.41     0.52  1375.54     0  04:15        0.16
  J56                  JUNCTION     0.39     0.50  1375.52     0  04:09        0.15
  J57                  JUNCTION     0.37     0.48  1375.50     0  04:07        0.15
  J58                  JUNCTION     0.37     0.49  1375.47     0  04:06        0.15
  FID1935              JUNCTION     0.37     0.53  1375.42     0  04:05        0.16
  J59                  JUNCTION     0.37     0.53  1375.40     0  04:05        0.16
  J60                  JUNCTION     0.36     0.52  1375.35     0  04:06        0.16
  J61                  JUNCTION     0.34     0.52  1375.28     0  04:07        0.16
  J62                  JUNCTION     0.33     0.51  1375.26     0  04:07        0.16
  J63                  JUNCTION     0.34     0.54  1375.23     0  04:06        0.17
  J64                  JUNCTION     0.33     0.54  1375.15     0  04:07        0.16
  J65                  JUNCTION     0.30     0.52  1375.10     0  04:08        0.16
  J66                  JUNCTION     0.38     0.61  1374.83     0  04:10        0.19
  J67                  JUNCTION     0.37     0.61  1374.76     0  04:11        0.18
  J68                  JUNCTION     0.36     0.59  1374.66     0  04:12        0.18
  J69                  JUNCTION     0.49     0.79  1374.51     0  04:20        0.24
  J70                  JUNCTION     0.47     0.77  1374.42     0  04:21        0.24
  J71                  JUNCTION     0.45     0.76  1374.36     0  04:21        0.23
  J72                  JUNCTION     0.48     0.80  1374.15     0  04:22        0.24
  J73                  JUNCTION     0.49     0.82  1374.04     0  04:21        0.25
  J74                  JUNCTION     0.50     0.82  1373.80     0  04:24        0.25
  J75                  JUNCTION     0.50     0.82  1373.66     0  04:25        0.25
  J76                  JUNCTION     0.46     0.81  1373.14     0  04:29        0.25
  J77                  JUNCTION     0.46     0.81  1373.01     0  04:30        0.25
  J78                  JUNCTION     0.46     0.81  1372.88     0  04:30        0.25
  J79                  JUNCTION     0.46     0.81  1372.82     0  04:30        0.25
  J80                  JUNCTION     0.40     0.73  1372.22     0  04:32        0.22
  J81                  JUNCTION     0.48     0.80  1371.79     0  04:34        0.24
  J82                  JUNCTION     0.47     0.79  1371.72     0  04:35        0.24
  J83                  JUNCTION     0.40     0.74  1371.54     0  04:35        0.23
  J84                  JUNCTION     0.36     0.67  1371.31     0  04:34        0.20
  J85                  JUNCTION     0.36     0.70  1371.22     0  04:35        0.21
  J86                  JUNCTION     0.38     0.76  1371.14     0  04:36        0.23
  J87                  JUNCTION     0.44     0.88  1371.07     0  04:36        0.27
  J88                  JUNCTION     0.51     0.97  1371.02     0  04:36        0.30
  J89                  JUNCTION     0.55     1.02  1371.01     0  04:35        0.31
  J90                  JUNCTION     0.51     0.96  1370.92     0  04:34        0.29
  J91                  JUNCTION     0.51     0.96  1370.85     0  04:34        0.29
  J92                  JUNCTION     0.51     0.96  1370.80     0  04:34        0.29
  J93                  JUNCTION     0.51     0.96  1370.69     0  04:34        0.29
  J94                  JUNCTION     0.51     0.96  1370.62     0  04:34        0.29
  J95                  JUNCTION     0.51     0.96  1370.60     0  04:34        0.29
  J96                  JUNCTION     0.50     0.95  1370.51     0  04:34        0.29
  J97                  JUNCTION     0.50     0.94  1370.44     0  04:35        0.29
  J98                  JUNCTION     0.49     0.93  1370.38     0  04:35        0.28
  J99                  JUNCTION     0.48     0.91  1370.31     0  04:36        0.28
  J100                 JUNCTION     0.47     0.89  1370.25     0  04:36        0.27
  J101                 JUNCTION     0.45     0.86  1370.18     0  04:36        0.26
  J102                 JUNCTION     0.37     0.76  1370.03     0  04:35        0.23
  J103                 JUNCTION     0.37     0.75  1369.98     0  04:35        0.23
  J104                 JUNCTION     0.36     0.74  1369.90     0  04:36        0.22
  J105                 JUNCTION     0.36     0.72  1369.84     0  04:36        0.22
  J106                 JUNCTION     0.35     0.69  1369.77     0  04:36        0.21
  J107                 JUNCTION     0.35     0.69  1369.63     0  04:37        0.21
  J108                 JUNCTION     0.35     0.69  1369.49     0  04:37        0.21
  J109                 JUNCTION     0.35     0.69  1369.38     0  04:37        0.21
  J110                 JUNCTION     0.35     0.70  1369.28     0  04:38        0.21
  J111                 JUNCTION     0.35     0.70  1369.18     0  04:38        0.21
  J112                 JUNCTION     0.35     0.70  1369.02     0  04:38        0.21
  J113                 JUNCTION     0.35     0.70  1368.93     0  04:39        0.21
  J114                 JUNCTION     0.35     0.70  1368.81     0  04:39        0.21
  J115                 JUNCTION     0.34     0.70  1368.75     0  04:39        0.21
  J116                 JUNCTION     0.34     0.70  1368.68     0  04:39        0.21
  J117                 JUNCTION     0.34     0.70  1368.57     0  04:40        0.21
  J118                 JUNCTION     0.35     0.69  1368.46     0  04:40        0.21
  J119                 JUNCTION     0.35     0.69  1368.39     0  04:40        0.21
  J120                 JUNCTION     0.36     0.67  1368.27     0  04:40        0.20
  FID2451              JUNCTION     0.38     0.61  1374.89     0  04:10        0.19
  J121                 JUNCTION     0.37     0.71  1371.46     0  04:34        0.22
  J122                 JUNCTION     0.38     0.71  1371.43     0  04:34        0.22
  FID3706              JUNCTION     0.51     0.96  1370.70     0  04:34        0.29
  FID2831              JUNCTION     0.51     0.96  1370.59     0  04:33        0.29
  FID2689              OUTFALL      0.25     0.50  1368.00     0  04:40        0.15
  
  
  *******************
  Node Inflow Summary
  *******************
  
  -------------------------------------------------------------------------------------------------
                                  Maximum  Maximum                  Lateral       Total        Flow
                                  Lateral    Total  Time of Max      Inflow      Inflow     Balance
                                   Inflow   Inflow   Occurrence      Volume      Volume       Error
  Node                 Type           CMS      CMS  days hr:min    10^6 ltr    10^6 ltr     Percent
  -------------------------------------------------------------------------------------------------
  FID1936              JUNCTION     0.195    0.195     0  04:05       0.224       0.224       0.072
  FID1955              JUNCTION     0.161    0.161     0  04:15       0.537       0.537       0.032
  FID1960              JUNCTION     0.073    0.073     0  04:15       0.245       0.245       0.069
  FID1965              JUNCTION     0.037    0.037     0  04:15       0.123       0.123       0.141
  FID1968              JUNCTION     0.011    0.011     0  04:15      0.0371      0.0371       0.471
  FID2239              JUNCTION     0.014    0.014     0  03:30      0.0385      0.0385       1.330
  FID2241              JUNCTION     0.000    0.012     0  04:05           0      0.0361       0.478
  FID2242              JUNCTION     0.012    0.012     0  04:05      0.0363      0.0363       0.498
  FID2244              JUNCTION     0.007    0.007     0  03:30      0.0141      0.0141       1.252
  FID2440              JUNCTION     0.000    1.270     0  04:09           0        15.3       0.228
  FID2442              JUNCTION     0.000    0.000     0  00:00           0           0       0.000 ltr
  FID2446              JUNCTION     0.140    0.140     0  04:05       0.159       0.159       1.169
  FID2447              JUNCTION     0.000    0.138     0  04:05           0       0.157      -0.343
  FID2455              JUNCTION     0.096    1.313     0  04:11        0.28        15.4       0.210
  FID2711              JUNCTION     0.000    0.042     0  04:05           0      0.0466       0.499
  FID2719              JUNCTION     0.179    0.179     0  04:05       0.217       0.217       0.198
  FID2720              JUNCTION     0.043    0.043     0  04:05      0.0468      0.0468       0.462
  FID2824              JUNCTION     0.000    0.003     0  03:55    0.000641     0.00957       1.816
  FID2827              JUNCTION     0.000    0.003     0  03:55    0.000726     0.00903       1.181
  FID2828              JUNCTION     0.003    0.003     0  04:10     0.00856     0.00856       3.037
  FID2832              JUNCTION     0.000    0.187     0  04:10           0       0.556       0.052
  FID2833              JUNCTION     0.187    0.187     0  04:10       0.556       0.556       0.043
  FID2839              JUNCTION     0.390    0.390     0  04:20        1.27        1.27       0.027
  FID2873              JUNCTION     0.025    0.025     0  04:10       0.073       0.073       0.778
  FID2964              JUNCTION     0.014    0.014     0  04:10      0.0604      0.0604       0.267
  FID2965              JUNCTION     0.000    1.706     0  04:35           0        16.4       0.278
  FID4584              JUNCTION     0.000    0.002     0  03:32           0     0.00086      19.334
  FID5068              JUNCTION     0.008    0.008     0  03:30      0.0173      0.0173       1.015
  FID5072              JUNCTION     0.098    1.439     0  04:20       0.283        15.5       0.198
  FID5140              JUNCTION     0.119    0.119     0  04:05       0.364       0.364       0.029
  FID5435              JUNCTION     0.213    0.213     0  04:05       0.921       0.921       0.020
  FID5437              JUNCTION     0.002    0.002     0  03:30     0.00472     0.00472       3.830
  FID5503              JUNCTION     0.000    0.000     0  03:28    0.000684    0.000684      33.893
  FID5504              JUNCTION     0.074    0.074     0  04:10       0.221       0.221       0.126
  FID5527              JUNCTION     0.016    0.016     0  04:10      0.0456      0.0456       0.383
  FID5568              JUNCTION     0.004    1.416     0  04:26     0.00676        15.2       0.702
  FID5784              JUNCTION     0.000    1.529     0  04:30           0        15.6       0.099
  FID5785              JUNCTION     0.000    0.013     0  04:05           0       0.038       0.392
  AFID6926             JUNCTION     0.074    0.074     0  04:15       0.226       0.226       0.077
  AFID7360             JUNCTION     0.000    1.707     0  04:37    0.000414        16.3       0.203
  AFID7363             JUNCTION     0.000    1.707     0  04:37           0        16.3       0.100
  AFID7376             JUNCTION     0.201    0.201     0  04:10       0.604       0.605      -0.001
  AFID7377             JUNCTION     0.000    1.710     0  04:30           0        16.5       0.109
  AFID7705             JUNCTION     0.000    0.724     0  04:15           0        14.1       0.268
  AFID7706             JUNCTION     0.000    0.651     0  04:16           0        13.9       0.259
  AFID7792             JUNCTION     0.206    0.206     0  04:05       0.611       0.611       0.024
  AFID8223             JUNCTION     0.000    1.524     0  04:30           0        15.6       0.022
  J1                   JUNCTION     0.667    0.667     0  04:15          21          21       0.151
  FID4901              JUNCTION     0.000    0.485     0  04:19           0        13.8       0.234
  J9                   JUNCTION     0.000    0.667     0  04:15           0          21       0.303
  J11                  JUNCTION     0.000    0.666     0  04:15           0        20.9       0.523
  J12                  JUNCTION     0.007    0.672     0  04:20      0.0227        20.8       0.571
  J13                  JUNCTION    -0.220    0.679     0  04:20       -7.13        20.7      -0.191
  FID4902              JUNCTION     0.000    0.495     0  04:15           0        13.8       0.367
  J14                  JUNCTION     0.377    0.903     0  04:05        0.48        14.3       0.192
  J15                  JUNCTION     0.491    1.256     0  04:05       0.669        14.9       0.157
  J16                  JUNCTION     0.008    1.241     0  04:05     0.00935        14.9       0.159
  FID2449              JUNCTION     0.001    1.138     0  04:08     0.00135        14.7       1.251
  J17                  JUNCTION     0.143    1.395     0  04:20       0.415        15.7       0.100
  J19                  JUNCTION     0.019    1.379     0  04:21      0.0362        15.5       1.221
  FID5069              JUNCTION     0.000    1.441     0  04:20           0        15.5       0.178
  FID5139              JUNCTION     0.000    1.486     0  04:27           0        15.4       0.053
  J24                  JUNCTION     0.018    1.418     0  04:26      0.0411        15.1       0.080
  FID4984              JUNCTION     0.000    1.534     0  04:30           0        15.6       0.818
  FID2669              JUNCTION     0.000    2.048     0  04:38           0        18.1       0.065
  FID2712              JUNCTION     0.000    2.027     0  04:35           0          18       0.081
  FID2718              JUNCTION     0.000    2.016     0  04:35           0          18       0.057
  FID2838              JUNCTION     0.000    1.912     0  04:33           0        17.5       0.173
  FID2825              JUNCTION     0.000    1.730     0  04:39           0        16.3       0.314
  FID2823              JUNCTION     0.000    1.726     0  04:38           0        16.4       0.482
  FID5505              JUNCTION     0.000    1.722     0  04:37           0        16.5       0.129
  FID5436              JUNCTION     0.000    1.660     0  04:30           0        16.3       0.799
  FID5438              JUNCTION     0.000    1.534     0  04:32           0        15.4       0.149
  J49                  JUNCTION     0.000    0.498     0  04:19           0        13.7       0.587
  J50                  JUNCTION     0.000    0.504     0  04:19    0.000274        13.6       1.029
  J51                  JUNCTION     0.000    0.515     0  04:18           0        13.5       0.830
  J52                  JUNCTION     0.000    0.528     0  04:33           0        13.4       0.246
  J53                  JUNCTION     0.000    0.740     0  04:15           0        13.8       0.209
  J54                  JUNCTION     0.000    0.735     0  04:15           0        13.9       0.310
  J55                  JUNCTION     0.000    0.724     0  04:15           0        14.1       0.297
  J56                  JUNCTION     0.000    0.724     0  04:15           0          14       0.318
  J57                  JUNCTION     0.000    0.726     0  04:15           0          14       0.397
  J58                  JUNCTION     0.002    0.730     0  04:15     0.00669        13.9       0.425
  FID1935              JUNCTION     0.000    1.080     0  04:05           0        14.5       0.247
  J59                  JUNCTION     0.000    1.057     0  04:05           0        14.4       0.342
  J60                  JUNCTION     0.008    1.021     0  04:05      0.0094        14.4       0.536
  J61                  JUNCTION     0.000    0.952     0  04:06           0        14.3       0.360
  J62                  JUNCTION     0.000    0.941     0  04:07           0        14.3       0.161
  J63                  JUNCTION     0.000    0.945     0  04:07           0        14.2       0.164
  J64                  JUNCTION     0.000    1.223     0  04:05           0        14.8       0.164
  J65                  JUNCTION     0.026    1.222     0  04:05        0.03        14.9       0.951
  J66                  JUNCTION     0.000    1.266     0  04:09           0        15.2       0.287
  J67                  JUNCTION     0.000    1.261     0  04:10           0        15.2       0.428
  J68                  JUNCTION     0.011    1.259     0  04:10      0.0229        15.1       0.464
  J69                  JUNCTION     0.000    1.392     0  04:20           0        15.7       0.450
  J70                  JUNCTION     0.006    1.388     0  04:20      0.0115        15.7       0.577
  J71                  JUNCTION     0.000    1.380     0  04:21           0        15.6       0.415
  J72                  JUNCTION     0.011    1.375     0  04:22      0.0311        15.4       1.360
  J73                  JUNCTION     0.000    1.439     0  04:20           0        15.4       0.394
  J74                  JUNCTION     0.000    1.431     0  04:20           0        15.4       0.580
  J75                  JUNCTION     0.006    1.422     0  04:22       0.012        15.3       0.896
  J76                  JUNCTION     0.000    1.486     0  04:27           0        15.4       0.218
  J77                  JUNCTION     0.089    1.528     0  04:20       0.264        15.7       0.401
  J78                  JUNCTION     0.000    1.523     0  04:30           0        15.6       0.301
  J79                  JUNCTION     0.000    1.522     0  04:30           0        15.6       0.110
  J80                  JUNCTION     0.014    1.535     0  04:30      0.0304        15.5       0.669
  J81                  JUNCTION     0.002    1.659     0  04:30     0.00531        16.2       1.214
  J82                  JUNCTION     0.000    1.649     0  04:34           0          16       0.480
  J83                  JUNCTION     0.000    1.647     0  04:35           0          16       0.357
  J84                  JUNCTION     0.000    1.709     0  04:31           0        16.5       0.189
  J85                  JUNCTION     0.000    1.706     0  04:32           0        16.4       0.353
  J86                  JUNCTION     0.000    1.702     0  04:34           0        16.4       0.363
  J87                  JUNCTION     0.003    1.706     0  04:37     0.00819        16.4       0.155
  J88                  JUNCTION     0.000    1.709     0  04:38           0        16.3       0.235
  J89                  JUNCTION     0.000    1.723     0  04:38           0        16.4       0.354
  J90                  JUNCTION     0.000    1.912     0  04:33           0        17.5       0.122
  J91                  JUNCTION     0.000    1.911     0  04:33           0        17.5       0.170
  J92                  JUNCTION     0.000    1.910     0  04:34    3.39e-06        17.5       0.211
  J93                  JUNCTION     0.000    1.916     0  04:35           0        17.5       0.112
  J94                  JUNCTION     0.000    1.917     0  04:35    6.19e-06        17.4       0.129
  J95                  JUNCTION     0.000    1.918     0  04:35           0        17.4       0.049
  J96                  JUNCTION     0.000    1.967     0  04:32           0        17.9       0.181
  J97                  JUNCTION     0.000    1.966     0  04:33           0        17.9       0.154
  J98                  JUNCTION     0.000    1.964     0  04:33           0        17.9       0.136
  J99                  JUNCTION     0.000    1.963     0  04:34           0        17.9       0.116
  J100                 JUNCTION     0.000    1.962     0  04:34           0        17.8       0.098
  J101                 JUNCTION     0.000    1.960     0  04:36           0        17.8       0.113
  J102                 JUNCTION     0.000    1.961     0  04:37           0        17.8       0.088
  J103                 JUNCTION     0.000    2.014     0  04:35           0          18       0.066
  J104                 JUNCTION     0.000    2.025     0  04:35           0          18       0.087
  J105                 JUNCTION     0.000    2.023     0  04:35           0          18       0.107
  J106                 JUNCTION     0.000    2.021     0  04:36           0          18       0.120
  J107                 JUNCTION     0.000    2.019     0  04:36           0          18       0.123
  J108                 JUNCTION     0.000    2.018     0  04:36    2.13e-05        17.9       0.111
  J109                 JUNCTION     0.000    2.016     0  04:37           0        17.9       0.093
  J110                 JUNCTION     0.000    2.015     0  04:37           0        17.9       0.091
  J111                 JUNCTION     0.000    2.014     0  04:37    0.000185        17.9       0.067
  J112                 JUNCTION     0.000    2.047     0  04:38           0        18.1       0.094
  J113                 JUNCTION     0.000    2.046     0  04:38           0        18.1       0.091
  J114                 JUNCTION     0.000    2.046     0  04:38           0          18       0.078
  J115                 JUNCTION     0.000    2.045     0  04:39           0          18       0.057
  J116                 JUNCTION     0.000    2.045     0  04:39    6.17e-06          18       0.075
  J117                 JUNCTION     0.000    2.044     0  04:39           0          18       0.093
  J118                 JUNCTION     0.000    2.043     0  04:39           0          18       0.081
  J119                 JUNCTION     0.000    2.043     0  04:40           0          18       0.078
  J120                 JUNCTION     0.000    2.043     0  04:40           0          18       0.096
  FID2451              JUNCTION     0.000    1.125     0  04:09           0        14.7       0.228
  J121                 JUNCTION     0.006    1.648     0  04:36      0.0161        15.9       0.108
  J122                 JUNCTION     0.000    1.649     0  04:36    0.000729        15.9       0.095
  FID3706              JUNCTION     0.000    1.916     0  04:34           0        17.5       0.168
  FID2831              JUNCTION     0.000    1.969     0  04:31           0          18       0.106
  FID2689              OUTFALL      0.000    2.043     0  04:40           0        17.9       0.000
  
  
  **********************
  Node Surcharge Summary
  **********************
  
  Surcharging occurs when water rises above the top of the highest conduit.
  ---------------------------------------------------------------------
                                               Max. Height   Min. Depth
                                   Hours       Above Crown    Below Rim
  Node                 Type      Surcharged         Meters       Meters
  ---------------------------------------------------------------------
  FID2446              JUNCTION        0.07          0.027        0.000
  FID2719              JUNCTION        0.04          0.371        0.010
  
  
  *********************
  Node Flooding Summary
  *********************
  
  Flooding refers to all water that overflows a node, whether it ponds or not.
  --------------------------------------------------------------------------
                                                             Total   Maximum
                                 Maximum   Time of Max       Flood    Ponded
                        Hours       Rate    Occurrence      Volume     Depth
  Node                 Flooded       CMS   days hr:min    10^6 ltr    Meters
  --------------------------------------------------------------------------
  FID2446                 0.07     0.004      0  03:34       0.001     0.027
  
  
  ***********************
  Outfall Loading Summary
  ***********************
  
  -----------------------------------------------------------------------------------------------------
                         Flow       Avg       Max       Total         Total         Total         Total
                         Freq      Flow      Flow      Volume           TSS            TP           TDP
  Outfall Node           Pcnt       CMS       CMS    10^6 ltr            kg            kg            kg
  -----------------------------------------------------------------------------------------------------
  FID2689               76.81     0.954     2.043      17.949      7221.420         4.242         5.320
  -----------------------------------------------------------------------------------------------------
  System                76.81     0.954     2.043      17.949      7221.420         4.242         5.320
  
  
  ********************
  Link Flow Summary
  ********************
  
  -----------------------------------------------------------------------------
                                 Maximum  Time of Max   Maximum    Max/    Max/
                                  |Flow|   Occurrence   |Veloc|    Full    Full
  Link                 Type          CMS  days hr:min     m/sec    Flow   Depth
  -----------------------------------------------------------------------------
  FID1123              CONDUIT     0.025     0  04:10      0.82    0.41    0.67
  FID1139              CONDUIT     0.179     0  04:05      1.65    1.29    0.91
  FID1148              CONDUIT     0.187     0  04:10      1.06    0.46    0.31
  FID1149              CONDUIT     0.187     0  04:10      2.32    0.06    0.34
  FID3364              CONDUIT     0.201     0  04:10      1.02    0.17    0.42
  FID3671              CONDUIT     0.011     0  04:15      1.13    0.08    0.19
  FID3672              CONDUIT     0.037     0  04:15      1.59    0.27    0.36
  FID3762              CONDUIT     0.073     0  04:15      1.91    0.22    0.47
  FID3765              CONDUIT     0.161     0  04:15      2.77    0.45    0.57
  FID4112              CONDUIT     0.195     0  04:05      1.78    0.34    0.40
  FID4186              CONDUIT     0.012     0  04:05      0.98    0.06    0.17
  FID4187              CONDUIT     0.012     0  04:05      1.54    0.03    0.12
  FID4201              CONDUIT     0.138     0  04:05      1.27    1.41    0.91
  FID4202              CONDUIT     0.137     0  04:05      1.47    1.00    0.77
  FID4203              CONDUIT     0.000     0  00:00      0.00    0.00    0.31
  FID4299              CONDUIT     0.008     0  03:30      0.99    0.03    0.12
  FID4372              CONDUIT     0.119     0  04:05      0.60    0.03    0.35
  FID4498              CONDUIT     0.014     0  04:10      0.36    0.05    0.67
  FID4806              CONDUIT     0.213     0  04:05      5.01    0.03    0.12
  FID4807              CONDUIT     0.002     0  03:30      0.76    0.01    0.08
  FID4882              CONDUIT     0.000     0  03:51      0.02    0.00    0.52
  FID4884              CONDUIT     0.074     0  04:10      1.94    0.02    0.16
  FID4914              CONDUIT     0.016     0  04:10      0.23    0.06    0.58
  FID4915              CONDUIT     0.003     0  03:55      0.24    0.09    0.20
  FID4916              CONDUIT     0.003     0  03:55      0.29    0.08    0.16
  FID4917              CONDUIT     0.003     0  03:55      0.88    0.01    0.54
  FID5307              CONDUIT     0.013     0  04:05      0.48    0.24    0.30
  FID5308              CONDUIT     0.007     0  03:30      1.24    0.04    0.13
  FID5312              CONDUIT     0.013     0  04:05      0.63    0.08    0.18
  FID5865              CONDUIT     0.390     0  04:20      4.28    0.13    0.34
  C9                   CHANNEL     0.667     0  04:15      0.66    0.07    0.48
  C12                  CHANNEL     0.668     0  04:20      0.46    0.29    0.57
  C13                  CHANNEL     0.679     0  04:20      0.62    0.30    0.59
  C14                  CHANNEL     0.465     0  04:34      0.69    0.20    0.60
  C52                  CONDUIT     0.206     0  04:05      1.54    0.32    0.56
  C130                 CONDUIT     0.042     0  04:05      0.66    0.79    0.41
  C131                 CONDUIT     0.042     0  04:05      1.78    0.09    0.44
  C139                 CONDUIT     0.002     0  03:32      0.09    0.02    0.52
  C191                 CHANNEL     0.498     0  04:19      0.48    0.22    0.64
  C193                 CHANNEL     0.515     0  04:18      0.38    0.23    0.74
  C194                 CHANNEL     0.528     0  04:33      0.30    0.23    0.78
  C195                 CHANNEL     0.532     0  04:33      0.35    0.10    0.63
  C196                 CONDUIT     0.488     0  04:19      0.45    0.35    0.67
  C197                 CONDUIT     0.652     0  04:15      0.24    0.31    0.88
  C198                 CHANNEL     0.724     0  04:15      0.31    0.14    0.52
  C199                 CHANNEL     0.724     0  04:15      0.32    3.16    0.61
  C200                 CHANNEL     0.726     0  04:15      0.34    2.86    0.58
  C201                 CHANNEL     0.729     0  04:15      0.35    0.22    0.48
  C202                 CHANNEL     0.735     0  04:15      0.35    0.22    0.50
  C203                 CHANNEL     0.740     0  04:15      0.35    0.22    0.51
  C204                 CHANNEL     0.745     0  04:15      0.51    0.22    0.52
  C205                 CONDUIT     0.886     0  04:05      0.35    0.61    0.64
  C206                 CHANNEL     1.057     0  04:05      0.43    0.31    0.53
  C207                 CHANNEL     1.016     0  04:05      0.42    0.30    0.52
  C208                 CHANNEL     0.952     0  04:06      0.40    0.28    0.52
  C209                 CHANNEL     0.941     0  04:07      0.40    0.28    0.51
  C210                 CHANNEL     0.945     0  04:07      0.48    0.29    0.61
  C211                 CHANNEL     0.952     0  04:08      0.47    0.34    0.55
  C212                 CONDUIT     1.233     0  04:05      0.47    0.71    0.67
  C213                 CHANNEL     1.223     0  04:05      0.60    0.44    0.56
  C214                 CHANNEL     1.205     0  04:05      0.63    0.44    0.54
  C215                 CONDUIT     1.138     0  04:08      0.41    0.66    0.69
  C216                 CONDUIT     1.114     0  04:09      0.51    0.83    0.58
  C217                 CONDUIT     1.123     0  04:09      0.43    0.45    0.45
  C218                 CHANNEL     1.266     0  04:09      0.53    0.46    0.63
  C219                 CHANNEL     1.261     0  04:10      0.54    0.46    0.62
  C220                 CHANNEL     1.255     0  04:10      0.54    0.45    0.61
  C221                 CHANNEL     1.254     0  04:11      0.57    0.45    0.59
  C222                 CONDUIT     1.309     0  04:11      0.55    0.88    0.69
  C223                 CHANNEL     1.392     0  04:20      1.38    0.17    0.60
  C224                 CHANNEL     1.385     0  04:20      0.51    0.90    0.91
  C225                 CHANNEL     1.380     0  04:21      0.53    0.90    0.89
  C226                 CHANNEL     1.375     0  04:21      0.54    0.89    0.87
  C227                 CONDUIT     1.371     0  04:23      0.42    1.11    0.93
  C228                 CHANNEL     1.380     0  04:24      0.67    0.56    0.74
  C229                 CONDUIT     1.435     0  04:20      0.34    0.25    0.54
  C230                 CHANNEL     1.439     0  04:20      0.67    0.59    0.76
  C231                 CHANNEL     1.431     0  04:20      0.67    0.58    0.76
  C232                 CHANNEL     1.422     0  04:22      0.67    0.58    0.76
  C233                 CHANNEL     1.415     0  04:26      0.67    0.58    0.75
  C234                 CONDUIT     1.415     0  04:25      0.51    0.58    0.58
  C235                 CHANNEL     1.418     0  04:26      0.68    0.58    0.75
  C236                 CHANNEL     1.486     0  04:27      0.67    0.71    0.83
  C237                 CHANNEL     1.485     0  04:28      0.67    0.71    0.84
  C238                 CHANNEL     1.523     0  04:30      0.69    0.73    0.84
  C239                 CHANNEL     1.522     0  04:30      0.69    0.73    0.84
  C240                 CHANNEL     1.522     0  04:30      0.69    0.71    0.83
  C241                 CHANNEL     1.524     0  04:30      0.76    0.73    0.83
  C242                 CONDUIT     1.528     0  04:30      0.51    0.53    0.67
  C243                 CHANNEL     1.532     0  04:31      0.73    0.73    0.81
  C244                 CHANNEL     1.534     0  04:32      0.94    0.25    0.48
  C245                 CONDUIT     1.535     0  04:33      0.61    0.42    0.62
  C246                 CHANNEL     1.653     0  04:31      0.59    0.53    0.71
  C247                 CHANNEL     1.649     0  04:34      0.61    0.53    0.69
  C248                 CHANNEL     1.647     0  04:35      0.64    0.53    0.67
  C249                 CHANNEL     1.648     0  04:36      2.75    0.66    0.68
  C250                 CONDUIT     1.649     0  04:36      0.73    0.60    0.56
  C251                 CONDUIT     1.649     0  04:36      0.73    0.60    0.55
  C252                 CHANNEL     1.709     0  04:31      2.05    0.69    0.65
  C253                 CHANNEL     1.706     0  04:32      0.84    0.39    0.65
  C254                 CHANNEL     1.702     0  04:34      1.56    0.39    0.69
  C255                 CHANNEL     1.700     0  04:36      1.87    0.39    0.75
  C256                 CHANNEL     1.706     0  04:37      1.44    0.39    0.80
  C257                 CHANNEL     1.707     0  04:37      1.45    0.39    0.83
  C258                 CONDUIT     1.707     0  04:37      0.60    0.63    0.70
  C259                 CHANNEL     1.709     0  04:38      1.41    0.39    0.89
  C260                 CHANNEL     1.710     0  04:38      1.15    0.39    0.93
  C261                 CHANNEL     1.723     0  04:38      0.90    0.39    0.95
  C262                 CHANNEL     1.726     0  04:38      0.48    0.39    0.98
  C263                 CHANNEL     1.730     0  04:39      0.52    0.40    0.69
  C264                 CONDUIT     1.732     0  04:39      0.56    0.90    0.75
  C265                 CHANNEL     1.912     0  04:33      0.60    0.44    0.62
  C266                 CHANNEL     1.911     0  04:33      0.64    0.37    0.67
  C267                 CHANNEL     1.910     0  04:34      0.64    0.37    0.67
  C268                 CHANNEL     1.910     0  04:35      0.64    0.37    0.67
  C269                 CHANNEL     1.916     0  04:35      0.89    0.38    0.67
  C270                 CHANNEL     1.917     0  04:35      0.64    0.38    0.67
  C271                 CHANNEL     1.918     0  04:35      0.64    0.38    0.67
  C272                 CHANNEL     1.918     0  04:35      0.65    0.38    0.67
  C273                 CHANNEL     1.967     0  04:32      0.67    0.39    0.67
  C274                 CHANNEL     1.966     0  04:33      0.68    0.39    0.66
  C275                 CHANNEL     1.964     0  04:33      0.69    0.38    0.65
  C276                 CHANNEL     1.963     0  04:34      0.71    0.38    0.64
  C277                 CHANNEL     1.962     0  04:34      0.74    0.38    0.63
  C278                 CHANNEL     1.960     0  04:36      0.78    0.38    0.61
  C279                 CHANNEL     1.961     0  04:37      0.91    0.38    0.57
  C280                 CHANNEL     1.963     0  04:37      0.75    0.67    0.77
  C281                 CHANNEL     2.014     0  04:35      0.76    0.68    0.77
  C282                 CHANNEL     2.012     0  04:35      0.77    0.68    0.76
  C283                 CHANNEL     2.025     0  04:35      0.79    0.69    0.75
  C284                 CHANNEL     2.023     0  04:35      0.80    0.69    0.74
  C285                 CHANNEL     2.021     0  04:36      0.83    0.69    0.72
  C286                 CHANNEL     2.019     0  04:36      0.94    0.49    0.71
  C287                 CHANNEL     2.018     0  04:36      0.94    0.49    0.71
  C288                 CHANNEL     2.016     0  04:37      0.93    0.49    0.71
  C289                 CHANNEL     2.015     0  04:37      0.93    0.49    0.71
  C290                 CHANNEL     2.014     0  04:37      0.93    0.49    0.71
  C291                 CHANNEL     2.014     0  04:38      0.93    0.49    0.71
  C292                 CHANNEL     2.047     0  04:38      0.94    0.50    0.71
  C293                 CHANNEL     2.046     0  04:38      0.94    0.50    0.71
  C294                 CHANNEL     2.046     0  04:38      0.94    0.50    0.71
  C295                 CHANNEL     2.045     0  04:39      0.94    0.50    0.71
  C296                 CHANNEL     2.045     0  04:39      0.94    0.50    0.71
  C297                 CHANNEL     2.044     0  04:39      0.94    0.50    0.71
  C298                 CHANNEL     2.043     0  04:39      0.95    0.50    0.71
  C299                 CHANNEL     2.043     0  04:40      0.96    0.50    0.70
  C300                 CHANNEL     2.043     0  04:40      0.98    0.50    0.69
  C301                 CHANNEL     2.043     0  04:40      1.48    0.36    0.45
  C302                 CHANNEL     0.666     0  04:15      0.57    0.10    0.43
  C303                 CHANNEL     0.504     0  04:19      0.43    0.22    0.68
  C353                 CONDUIT     0.074     0  04:15      1.86    0.03    0.11
  
  
  ***************************
  Flow Classification Summary
  ***************************
  
  -------------------------------------------------------------------------------------
                      Adjusted    ---------- Fraction of Time in Flow Class ---------- 
                       /Actual         Up    Down  Sub   Sup   Up    Down  Norm  Inlet 
  Conduit               Length    Dry  Dry   Dry   Crit  Crit  Crit  Crit  Ltd   Ctrl  
  -------------------------------------------------------------------------------------
  FID1123                 1.00   0.18  0.00  0.00  0.30  0.00  0.00  0.51  0.21  0.00
  FID1139                 1.00   0.16  0.00  0.00  0.18  0.00  0.00  0.65  0.12  0.00
  FID1148                 1.00   0.14  0.00  0.00  0.53  0.00  0.00  0.33  0.00  0.00
  FID1149                 1.00   0.15  0.00  0.00  0.45  0.06  0.00  0.34  0.38  0.00
  FID3364                 1.00   0.14  0.01  0.00  0.86  0.00  0.00  0.00  0.70  0.00
  FID3671                 1.00   0.22  0.00  0.00  0.00  0.00  0.00  0.78  0.00  0.00
  FID3672                 1.00   0.19  0.00  0.00  0.00  0.00  0.00  0.81  0.00  0.00
  FID3762                 1.00   0.01  0.16  0.00  0.71  0.12  0.00  0.00  0.67  0.00
  FID3765                 1.00   0.01  0.16  0.00  0.66  0.17  0.00  0.00  0.68  0.00
  FID4112                 1.00   0.16  0.00  0.00  0.00  0.00  0.00  0.84  0.00  0.00
  FID4186                 1.00   0.22  0.00  0.00  0.36  0.15  0.00  0.27  0.00  0.00
  FID4187                 1.00   0.24  0.00  0.00  0.00  0.00  0.00  0.76  0.00  0.00
  FID4201                 1.00   0.16  0.00  0.00  0.76  0.00  0.00  0.08  0.44  0.00
  FID4202                 1.00   0.19  0.00  0.00  0.00  0.00  0.00  0.81  0.00  0.00
  FID4203                 1.00   0.17  0.83  0.00  0.00  0.00  0.00  0.00  0.00  0.00
  FID4299                 1.00   0.23  0.00  0.00  0.00  0.00  0.00  0.77  0.00  0.00
  FID4372                 1.00   0.07  0.13  0.00  0.81  0.00  0.00  0.00  0.66  0.00
  FID4498                 1.00   0.15  0.00  0.00  0.85  0.00  0.00  0.00  0.59  0.00
  FID4806                 1.00   0.17  0.00  0.00  0.00  0.00  0.00  0.83  0.00  0.00
  FID4807                 1.00   0.24  0.00  0.00  0.00  0.00  0.00  0.76  0.00  0.00
  FID4882                 1.00   0.24  0.30  0.00  0.28  0.00  0.00  0.18  0.59  0.00
  FID4884                 1.00   0.15  0.00  0.00  0.19  0.04  0.00  0.63  0.15  0.00
  FID4914                 1.00   0.11  0.08  0.00  0.81  0.00  0.00  0.00  0.66  0.00
  FID4915                 1.00   0.24  0.00  0.00  0.75  0.00  0.00  0.01  0.49  0.00
  FID4916                 1.00   0.24  0.00  0.00  0.58  0.00  0.00  0.18  0.12  0.00
  FID4917                 1.00   0.25  0.00  0.00  0.42  0.00  0.00  0.33  0.31  0.00
  FID5307                 1.00   0.22  0.00  0.00  0.75  0.00  0.00  0.03  0.49  0.00
  FID5308                 1.00   0.23  0.00  0.00  0.00  0.00  0.00  0.77  0.00  0.00
  FID5312                 1.00   0.24  0.00  0.00  0.00  0.00  0.00  0.76  0.00  0.00
  FID5865                 1.00   0.15  0.00  0.00  0.16  0.15  0.00  0.54  0.22  0.00
  C9                      1.00   0.00  0.00  0.00  1.00  0.00  0.00  0.00  0.00  0.00
  C12                     1.00   0.00  0.00  0.00  1.00  0.00  0.00  0.00  0.00  0.00
  C13                     1.00   0.00  0.00  0.00  1.00  0.00  0.00  0.00  0.00  0.00
  C14                     1.00   0.00  0.00  0.00  1.00  0.00  0.00  0.00  0.00  0.00
  C52                     1.00   0.04  0.14  0.00  0.82  0.01  0.00  0.00  0.68  0.00
  C130                    1.00   0.22  0.00  0.00  0.53  0.00  0.00  0.25  0.00  0.00
  C131                    1.00   0.25  0.00  0.00  0.37  0.01  0.00  0.37  0.28  0.00
  C139                    1.00   0.14  0.48  0.00  0.37  0.00  0.01  0.00  0.49  0.00
  C191                    1.00   0.00  0.00  0.00  1.00  0.00  0.00  0.00  0.00  0.00
  C193                    1.00   0.00  0.00  0.00  1.00  0.00  0.00  0.00  0.00  0.00
  C194                    1.00   0.00  0.00  0.00  1.00  0.00  0.00  0.00  0.00  0.00
  C195                    1.00   0.01  0.00  0.00  0.99  0.00  0.00  0.00  0.00  0.00
  C196                    1.00   0.00  0.00  0.00  1.00  0.00  0.00  0.00  0.00  0.00
  C197                    1.00   0.01  0.00  0.00  0.99  0.00  0.00  0.00  0.00  0.00
  C198                    1.00   0.01  0.00  0.00  0.99  0.00  0.00  0.00  0.00  0.00
  C199                    1.00   0.01  0.00  0.00  0.99  0.00  0.00  0.00  0.00  0.00
  C200                    1.00   0.01  0.00  0.00  0.99  0.00  0.00  0.00  0.00  0.00
  C201                    1.00   0.01  0.00  0.00  0.99  0.00  0.00  0.00  0.00  0.00
  C202                    1.00   0.01  0.00  0.00  0.99  0.00  0.00  0.00  0.00  0.00
  C203                    1.00   0.01  0.00  0.00  0.99  0.00  0.00  0.00  0.00  0.00
  C204                    1.00   0.01  0.00  0.00  0.99  0.00  0.00  0.00  0.00  0.00
  C205                    1.00   0.02  0.00  0.00  0.98  0.00  0.00  0.00  0.00  0.00
  C206                    1.00   0.02  0.00  0.00  0.98  0.00  0.00  0.00  0.00  0.00
  C207                    1.00   0.02  0.00  0.00  0.98  0.00  0.00  0.00  0.00  0.00
  C208                    1.00   0.02  0.00  0.00  0.98  0.00  0.00  0.00  0.00  0.00
  C209                    1.00   0.02  0.00  0.00  0.98  0.00  0.00  0.00  0.00  0.00
  C210                    1.00   0.02  0.00  0.00  0.98  0.00  0.00  0.00  0.00  0.00
  C211                    1.00   0.02  0.00  0.00  0.98  0.00  0.00  0.00  0.00  0.00
  C212                    1.00   0.02  0.00  0.00  0.98  0.00  0.00  0.00  0.00  0.00
  C213                    1.00   0.02  0.00  0.00  0.98  0.00  0.00  0.00  0.00  0.00
  C214                    1.00   0.03  0.00  0.00  0.97  0.00  0.00  0.00  0.00  0.00
  C215                    1.00   0.03  0.00  0.00  0.97  0.00  0.00  0.00  0.71  0.00
  C216                    1.00   0.03  0.00  0.00  0.97  0.00  0.00  0.00  0.00  0.00
  C217                    1.00   0.03  0.00  0.00  0.97  0.00  0.00  0.00  0.00  0.00
  C218                    1.00   0.03  0.00  0.00  0.97  0.00  0.00  0.00  0.00  0.00
  C219                    1.00   0.03  0.00  0.00  0.97  0.00  0.00  0.00  0.00  0.00
  C220                    1.00   0.04  0.00  0.00  0.96  0.00  0.00  0.00  0.00  0.00
  C221                    1.00   0.04  0.00  0.00  0.96  0.00  0.00  0.00  0.00  0.00
  C222                    1.00   0.04  0.00  0.00  0.96  0.00  0.00  0.00  0.00  0.00
  C223                    1.00   0.04  0.00  0.00  0.96  0.00  0.00  0.00  0.01  0.00
  C224                    1.00   0.04  0.00  0.00  0.96  0.00  0.00  0.00  0.00  0.00
  C225                    1.00   0.04  0.00  0.00  0.96  0.00  0.00  0.00  0.00  0.00
  C226                    1.00   0.04  0.00  0.00  0.96  0.00  0.00  0.00  0.00  0.00
  C227                    1.00   0.05  0.00  0.00  0.95  0.00  0.00  0.00  0.00  0.00
  C228                    1.00   0.05  0.00  0.00  0.95  0.00  0.00  0.00  0.00  0.00
  C229                    1.00   0.05  0.00  0.00  0.95  0.00  0.00  0.00  0.00  0.00
  C230                    1.00   0.05  0.00  0.00  0.95  0.00  0.00  0.00  0.00  0.00
  C231                    1.00   0.06  0.00  0.00  0.94  0.00  0.00  0.00  0.01  0.00
  C232                    1.00   0.06  0.00  0.00  0.94  0.00  0.00  0.00  0.00  0.00
  C233                    1.00   0.06  0.00  0.00  0.94  0.00  0.00  0.00  0.00  0.00
  C234                    1.00   0.06  0.00  0.00  0.94  0.00  0.00  0.00  0.00  0.00
  C235                    1.00   0.06  0.00  0.00  0.94  0.00  0.00  0.00  0.00  0.00
  C236                    1.00   0.07  0.00  0.00  0.93  0.00  0.00  0.00  0.00  0.00
  C237                    1.00   0.07  0.00  0.00  0.93  0.00  0.00  0.00  0.00  0.00
  C238                    1.00   0.07  0.00  0.00  0.93  0.00  0.00  0.00  0.00  0.00
  C239                    1.00   0.07  0.00  0.00  0.93  0.00  0.00  0.00  0.00  0.00
  C240                    1.00   0.07  0.00  0.00  0.93  0.00  0.00  0.00  0.00  0.00
  C241                    1.00   0.07  0.00  0.00  0.93  0.00  0.00  0.00  0.00  0.00
  C242                    1.00   0.07  0.00  0.00  0.93  0.00  0.00  0.00  0.00  0.00
  C243                    1.00   0.07  0.00  0.00  0.93  0.00  0.00  0.00  0.00  0.00
  C244                    1.00   0.07  0.00  0.00  0.92  0.01  0.00  0.00  0.00  0.00
  C245                    1.00   0.08  0.00  0.00  0.92  0.00  0.00  0.00  0.00  0.00
  C246                    1.00   0.08  0.00  0.00  0.92  0.00  0.00  0.00  0.50  0.00
  C247                    1.00   0.09  0.00  0.00  0.91  0.00  0.00  0.00  0.00  0.00
  C248                    1.00   0.10  0.00  0.00  0.90  0.00  0.00  0.00  0.00  0.00
  C249                    1.00   0.11  0.00  0.00  0.89  0.00  0.00  0.00  0.00  0.00
  C250                    1.00   0.12  0.00  0.00  0.88  0.00  0.00  0.00  0.00  0.00
  C251                    1.00   0.13  0.00  0.00  0.87  0.00  0.00  0.00  0.00  0.00
  C252                    1.00   0.13  0.00  0.00  0.87  0.00  0.00  0.00  0.00  0.00
  C253                    1.00   0.13  0.00  0.00  0.87  0.00  0.00  0.00  0.00  0.00
  C254                    1.00   0.14  0.00  0.00  0.86  0.00  0.00  0.00  0.04  0.00
  C255                    1.00   0.14  0.00  0.00  0.86  0.00  0.00  0.00  0.00  0.00
  C256                    1.00   0.13  0.01  0.00  0.85  0.00  0.00  0.00  0.00  0.00
  C257                    1.00   0.13  0.00  0.00  0.87  0.00  0.00  0.00  0.00  0.00
  C258                    1.00   0.13  0.02  0.00  0.85  0.00  0.00  0.00  0.00  0.00
  C259                    1.00   0.13  0.00  0.00  0.87  0.00  0.00  0.00  0.00  0.00
  C260                    1.00   0.15  0.01  0.00  0.84  0.00  0.00  0.00  0.00  0.00
  C261                    1.00   0.15  0.00  0.00  0.85  0.00  0.00  0.00  0.00  0.00
  C262                    1.00   0.15  0.00  0.00  0.85  0.00  0.00  0.00  0.00  0.00
  C263                    1.00   0.16  0.00  0.00  0.84  0.00  0.00  0.00  0.00  0.00
  C264                    1.00   0.15  0.00  0.00  0.85  0.00  0.00  0.00  0.00  0.00
  C265                    1.00   0.15  0.02  0.00  0.83  0.00  0.00  0.00  0.00  0.00
  C266                    1.00   0.17  0.00  0.00  0.83  0.00  0.00  0.00  0.00  0.00
  C267                    1.00   0.18  0.00  0.00  0.82  0.00  0.00  0.00  0.00  0.00
  C268                    1.00   0.18  0.00  0.00  0.82  0.00  0.00  0.00  0.00  0.00
  C269                    1.00   0.18  0.00  0.00  0.82  0.00  0.00  0.00  0.00  0.00
  C270                    1.00   0.18  0.00  0.00  0.82  0.00  0.00  0.00  0.00  0.00
  C271                    1.00   0.17  0.02  0.00  0.82  0.00  0.00  0.00  0.00  0.00
  C272                    1.00   0.15  0.01  0.00  0.84  0.00  0.00  0.00  0.00  0.00
  C273                    1.00   0.15  0.00  0.00  0.85  0.00  0.00  0.00  0.00  0.00
  C274                    1.00   0.16  0.00  0.00  0.84  0.00  0.00  0.00  0.00  0.00
  C275                    1.00   0.19  0.00  0.00  0.81  0.00  0.00  0.00  0.00  0.00
  C276                    1.00   0.19  0.00  0.00  0.81  0.00  0.00  0.00  0.00  0.00
  C277                    1.00   0.20  0.00  0.00  0.80  0.00  0.00  0.00  0.00  0.00
  C278                    1.00   0.20  0.00  0.00  0.80  0.00  0.00  0.00  0.00  0.00
  C279                    1.00   0.20  0.00  0.00  0.80  0.00  0.00  0.00  0.00  0.00
  C280                    1.00   0.16  0.04  0.00  0.80  0.00  0.00  0.00  0.00  0.00
  C281                    1.00   0.16  0.00  0.00  0.84  0.00  0.00  0.00  0.00  0.00
  C282                    1.00   0.17  0.00  0.00  0.83  0.00  0.00  0.00  0.00  0.00
  C283                    1.00   0.18  0.00  0.00  0.82  0.00  0.00  0.00  0.00  0.00
  C284                    1.00   0.20  0.00  0.00  0.80  0.00  0.00  0.00  0.00  0.00
  C285                    1.00   0.21  0.00  0.00  0.79  0.00  0.00  0.00  0.00  0.00
  C286                    1.00   0.21  0.00  0.00  0.79  0.00  0.00  0.00  0.24  0.00
  C287                    1.00   0.17  0.04  0.00  0.79  0.00  0.00  0.00  0.22  0.00
  C288                    1.00   0.17  0.00  0.00  0.83  0.00  0.00  0.00  0.00  0.00
  C289                    1.00   0.21  0.00  0.00  0.79  0.00  0.00  0.00  0.00  0.00
  C290                    1.00   0.16  0.06  0.00  0.78  0.00  0.00  0.00  0.00  0.00
  C291                    1.00   0.16  0.00  0.00  0.84  0.00  0.00  0.00  0.03  0.00
  C292                    1.00   0.18  0.00  0.00  0.82  0.00  0.00  0.00  0.00  0.00
  C293                    1.00   0.19  0.00  0.00  0.81  0.00  0.00  0.00  0.00  0.00
  C294                    1.00   0.20  0.00  0.00  0.80  0.00  0.00  0.00  0.00  0.00
  C295                    1.00   0.22  0.00  0.00  0.78  0.00  0.00  0.00  0.00  0.00
  C296                    1.00   0.22  0.00  0.00  0.78  0.00  0.00  0.00  0.00  0.00
  C297                    1.00   0.23  0.00  0.00  0.77  0.00  0.00  0.00  0.00  0.00
  C298                    1.00   0.23  0.00  0.00  0.77  0.00  0.00  0.00  0.00  0.00
  C299                    1.00   0.23  0.00  0.00  0.77  0.00  0.00  0.00  0.00  0.00
  C300                    1.00   0.23  0.00  0.00  0.77  0.00  0.00  0.00  0.00  0.00
  C301                    1.00   0.23  0.00  0.00  0.77  0.00  0.00  0.00  0.00  0.00
  C302                    1.00   0.00  0.00  0.00  1.00  0.00  0.00  0.00  0.00  0.00
  C303                    1.00   0.00  0.00  0.00  1.00  0.00  0.00  0.00  0.00  0.00
  C353                    1.00   0.18  0.00  0.00  0.00  0.00  0.00  0.82  0.00  0.00
  
  
  *************************
  Conduit Surcharge Summary
  *************************
  
  ----------------------------------------------------------------------------
                                                           Hours        Hours 
                         --------- Hours Full --------   Above Full   Capacity
  Conduit                Both Ends  Upstream  Dnstream   Normal Flow   Limited
  ----------------------------------------------------------------------------
  FID1123                     0.01      0.01      0.25      0.01         0.01
  FID1139                     0.01      0.04      0.01      0.08         0.01
  FID4201                     0.01      0.07      0.01      0.17         0.01
  FID4498                     0.01      0.01      1.44      0.01         0.01
  FID4882                     0.01      0.01      1.97      0.01         0.01
  FID4914                     0.01      0.01      2.05      0.01         0.01
  FID4917                     0.01      0.01      0.84      0.01         0.01
  C199                        0.01      0.01      0.01      8.53         0.01
  C200                        0.01      0.01      0.01      8.47         0.01
  C227                        0.01      0.01      0.01      0.51         0.01
  C262                        0.01      0.01      0.69      0.01         0.01
  
  
  ***************************
  Link Pollutant Load Summary
  ***************************
  
  --------------------------------------------------------------
                                 TSS            TP           TDP
  Link                            kg            kg            kg
  --------------------------------------------------------------
  FID1123                     21.377         0.001         0.017
  FID1139                    135.981         0.031         0.127
  FID1148                    240.156         0.076         0.225
  FID1149                    239.567         0.076         0.225
  FID3364                    293.432         0.094         0.268
  FID3671                     18.614         0.006         0.013
  FID3672                     62.405         0.028         0.064
  FID3762                    177.623         0.092         0.162
  FID3765                    299.456         0.123         0.261
  FID4112                    101.794         0.044         0.098
  FID4186                     24.769         0.012         0.019
  FID4187                     23.609         0.012         0.018
  FID4201                     54.687         0.034         0.059
  FID4202                     53.694         0.033         0.057
  FID4203                      0.000         0.000         0.000
  FID4299                      8.964         0.006         0.010
  FID4372                   1056.879         0.266         0.381
  FID4498                     58.860         0.063         0.046
  FID4806                   1960.173         0.939         0.369
  FID4807                      0.000         0.000         0.001
  FID4882                      0.000         0.000         0.000
  FID4884                     86.363         0.009         0.072
  FID4914                     45.339         0.022         0.040
  FID4915                      0.605         0.002         0.003
  FID4916                      0.070         0.000         0.000
  FID4917                      0.029         0.000         0.000
  FID5307                     18.795         0.008         0.023
  FID5308                      7.276         0.007         0.010
  FID5312                     16.413         0.008         0.022
  FID5865                    187.786         1.188         0.516
  C9                         185.116         1.058         1.316
  C12                        184.189         1.043         1.296
  C13                        217.600         1.049         1.318
  C14                        142.442         0.691         0.872
  C52                        396.939         0.145         0.364
  C130                        18.118         0.009         0.025
  C131                        17.730         0.009         0.024
  C139                         3.157         0.001         0.003
  C191                       223.445         0.718         0.941
  C193                       224.707         0.700         0.918
  C194                       221.372         0.695         0.914
  C195                       220.878         0.693         0.912
  C196                       204.971         0.716         0.932
  C197                       520.690         0.813         1.170
  C198                       698.118         0.903         1.329
  C199                       701.568         0.901         1.328
  C200                       699.931         0.897         1.324
  C201                       710.296         0.894         1.319
  C202                       719.658         0.892         1.323
  C203                       718.378         0.889         1.319
  C204                       715.911         0.887         1.316
  C205                       912.152         0.955         1.506
  C206                      1012.869         0.996         1.600
  C207                      1016.841         0.995         1.602
  C208                      1038.262         0.999         1.612
  C209                      1028.178         0.992         1.600
  C210                      1029.126         0.990         1.598
  C211                      1027.520         0.988         1.595
  C212                      1336.297         1.119         1.876
  C213                      1338.880         1.121         1.879
  C214                      1339.271         1.120         1.878
  C215                      1450.452         1.155         1.940
  C216                      1383.423         1.128         1.895
  C217                      1438.721         1.160         1.950
  C218                      1832.546         1.301         2.310
  C219                      1838.925         1.300         2.311
  C220                      1842.169         1.297         2.308
  C221                      1887.312         1.301         2.333
  C222                      2047.962         1.355         2.481
  C223                      2238.236         1.429         2.675
  C224                      2266.862         1.433         2.692
  C225                      2273.215         1.424         2.687
  C226                      2272.240         1.420         2.682
  C227                      2380.254         1.441         2.732
  C228                      2334.390         1.423         2.700
  C229                      2580.273         1.521         2.914
  C230                      2585.540         1.525         2.920
  C231                      2620.033         1.530         2.937
  C232                      2601.008         1.520         2.918
  C233                      2679.837         1.529         2.958
  C234                      2617.026         1.510         2.913
  C235                      2632.188         1.520         2.932
  C236                      3686.030         1.784         3.310
  C237                      3718.866         1.789         3.321
  C238                      3993.565         1.886         3.581
  C239                      3973.805         1.878         3.567
  C240                      3959.471         1.874         3.559
  C241                      3966.108         1.881         3.568
  C242                      3992.674         1.890         3.593
  C243                      4110.571         1.916         3.645
  C244                      4041.835         1.905         3.616
  C245                      4045.371         1.904         3.615
  C246                      6142.232         2.891         4.018
  C247                      6034.270         2.847         4.011
  C248                      6082.145         2.862         4.016
  C249                      6011.273         2.834         3.996
  C250                      6009.244         2.837         4.003
  C251                      6012.278         2.837         4.002
  C252                      6299.200         2.928         4.267
  C253                      6340.368         2.939         4.274
  C254                      6361.506         2.944         4.275
  C255                      6351.352         2.939         4.268
  C256                      6386.578         2.991         4.304
  C257                      6362.833         2.985         4.305
  C258                      6364.558         2.984         4.303
  C259                      6409.150         2.998         4.309
  C260                      6363.190         2.980         4.297
  C261                      6459.543         2.991         4.368
  C262                      6516.896         3.008         4.371
  C263                      6472.367         2.989         4.358
  C264                      6461.844         2.982         4.351
  C265                      6634.724         4.155         4.860
  C266                      6655.812         4.171         4.864
  C267                      6649.419         4.164         4.860
  C268                      6671.056         4.179         4.862
  C269                      6653.201         4.146         4.865
  C270                      6676.161         4.165         4.870
  C271                      6655.865         4.145         4.862
  C272                      6652.119         4.142         4.860
  C273                      6913.468         4.234         5.090
  C274                      6908.946         4.229         5.086
  C275                      6904.694         4.223         5.081
  C276                      6902.825         4.220         5.078
  C277                      6898.419         4.215         5.075
  C278                      6897.670         4.214         5.073
  C279                      6900.568         4.214         5.072
  C280                      6894.356         4.209         5.069
  C281                      7028.703         4.238         5.194
  C282                      7032.314         4.240         5.194
  C283                      7049.657         4.247         5.217
  C284                      7051.063         4.247         5.216
  C285                      7053.685         4.248         5.215
  C286                      7057.023         4.249         5.214
  C287                      7057.263         4.248         5.212
  C288                      7054.963         4.245         5.210
  C289                      7054.349         4.243         5.208
  C290                      7054.943         4.243         5.207
  C291                      7049.599         4.238         5.204
  C292                      7225.914         4.253         5.334
  C293                      7224.338         4.251         5.332
  C294                      7226.027         4.251         5.331
  C295                      7221.030         4.247         5.328
  C296                      7222.387         4.247         5.328
  C297                      7225.844         4.249         5.328
  C298                      7226.210         4.248         5.326
  C299                      7222.403         4.244         5.323
  C300                      7224.590         4.245         5.323
  C301                      7221.420         4.242         5.320
  C302                       184.584         1.053         1.310
  C303                       224.545         0.711         0.932
  C353                       168.556         0.010         0.129
  

  Analysis begun on:  Tue Oct 10 17:33:49 2017
  Analysis ended on:  Tue Oct 10 17:34:03 2017
  Total elapsed time: 00:00:14